  0
SECTION
  2
ENTITIES
999
DXF created from EnergyPlus
999
Program Version,EnergyPlus, Version 9.0.1-bb7ca4f0da, YMD=2020.12.06 13:55
999
Polygon Action,TRIANGULATE3DFACE
999
Color Scheme,Default
999
Text - True North
  0
TEXT
  8
1
  6
Continuous
 62
  3
 10
      -16.67500
 20
       -5.49943
 30
        0.10000
 40
 .25
  1
True North
 41
 0.0
  7
MONOTXT
210
0.0
220
0.0
230
1.0
999
Text - Building Title
  0
TEXT
  8
1
  6
Continuous
 62
  3
 10
      -19.67500
 20
       -9.49943
 30
        0.10000
 40
 .4
  1
Building - Building
 41
 0.0
  7
MONOTXT
210
0.0
220
0.0
230
1.0
999
North Arrow Stem
  0
3DFACE
  8
1
 62
  3
 10
      -15.67500
 20
       -5.49943
 30
        0.10000
 11
      -15.67500
 21
       -5.49943
 31
        0.00000
 12
      -15.67500
 22
       -8.49943
 32
        0.00000
 13
      -15.67500
 23
       -8.49943
 33
        0.10000
999
North Arrow Head 1
  0
3DFACE
  8
1
 62
  3
 10
      -15.67500
 20
       -5.49943
 30
        0.10000
 11
      -15.67500
 21
       -5.49943
 31
        0.00000
 12
      -16.17500
 22
       -6.36546
 32
        0.00000
 13
      -16.17500
 23
       -6.36546
 33
        0.10000
999
North Arrow Head 2
  0
3DFACE
  8
1
 62
  3
 10
      -15.67500
 20
       -5.49943
 30
        0.10000
 11
      -15.67500
 21
       -5.49943
 31
        0.00000
 12
      -15.17500
 22
       -6.36546
 32
        0.00000
 13
      -15.17500
 23
       -6.36546
 33
        0.10000
999
North Arrow Side 1
  0
3DFACE
  8
1
 62
  3
 10
      -16.17500
 20
       -3.99943
 30
        0.10000
 11
      -16.17500
 21
       -3.99943
 31
        0.00000
 12
      -16.17500
 22
       -4.99943
 32
        0.00000
 13
      -16.17500
 23
       -4.99943
 33
        0.10000
999
North Arrow Side 2
  0
3DFACE
  8
1
 62
  3
 10
      -16.17500
 20
       -3.99943
 30
        0.10000
 11
      -16.17500
 21
       -3.99943
 31
        0.00000
 12
      -15.17500
 22
       -4.99943
 32
        0.00000
 13
      -15.17500
 23
       -4.99943
 33
        0.10000
999
North Arrow Side 3
  0
3DFACE
  8
1
 62
  3
 10
      -15.17500
 20
       -3.99943
 30
        0.10000
 11
      -15.17500
 21
       -3.99943
 31
        0.00000
 12
      -15.17500
 22
       -4.99943
 32
        0.00000
 13
      -15.17500
 23
       -4.99943
 33
        0.10000
999
Zone Names
999
Zone=1:BLOCK1_ZONE3
999
Zone=2:BLOCK1_ZONE1
999
Zone=3:BLOCK1_ZONE2
999
Building Shading:GROUDZERO - COMPONENT BLOCK 2 - SURFACE 1 (1)
  0
3DFACE
  8
Building Shading
 62
195
 10
       -5.37500
 20
       -8.49571
 30
        3.50000
 11
       -5.37500
 21
       -8.49571
 31
        0.00000
 12
        5.62500
 22
       -8.49571
 32
        0.00000
 13
        5.62500
 23
       -8.49571
 33
        3.50000
999
Building Shading:Mir-GROUDZERO - COMPONENT BLOCK 2 - SURFACE 1 (1)
  0
3DFACE
  8
Building Shading
 62
195
 10
        5.62500
 20
       -8.49571
 30
        3.50000
 11
        5.62500
 21
       -8.49571
 31
        0.00000
 12
       -5.37500
 22
       -8.49571
 32
        0.00000
 13
       -5.37500
 23
       -8.49571
 33
        3.50000
999
Building Shading:GROUDZERO - COMPONENT BLOCK 2 - SURFACE 2 (2)
  0
3DFACE
  8
Building Shading
 62
195
 10
       -5.37500
 20
       -8.49571
 30
        3.50000
 11
        5.62500
 21
       -8.49571
 31
        3.50000
 12
        5.62500
 22
        3.50000
 32
        3.50000
 13
       -5.37500
 23
        3.50000
 33
        3.50000
999
Building Shading:Mir-GROUDZERO - COMPONENT BLOCK 2 - SURFACE 2 (2)
  0
3DFACE
  8
Building Shading
 62
195
 10
       -5.37500
 20
        3.50000
 30
        3.50000
 11
        5.62500
 21
        3.50000
 31
        3.50000
 12
        5.62500
 22
       -8.49571
 32
        3.50000
 13
       -5.37500
 23
       -8.49571
 33
        3.50000
999
Building Shading:GROUDZERO - COMPONENT BLOCK 2 - SURFACE 3 (3)
  0
3DFACE
  8
Building Shading
 62
195
 10
        5.62500
 20
       -8.49571
 30
        3.50000
 11
        5.62500
 21
       -8.49571
 31
        0.00000
 12
        5.62500
 22
        3.50000
 32
        0.00000
 13
        5.62500
 23
        3.50000
 33
        3.50000
999
Building Shading:Mir-GROUDZERO - COMPONENT BLOCK 2 - SURFACE 3 (3)
  0
3DFACE
  8
Building Shading
 62
195
 10
        5.62500
 20
        3.50000
 30
        3.50000
 11
        5.62500
 21
        3.50000
 31
        0.00000
 12
        5.62500
 22
       -8.49571
 32
        0.00000
 13
        5.62500
 23
       -8.49571
 33
        3.50000
999
Building Shading:GROUDZERO - COMPONENT BLOCK 2 - SURFACE 4 (4)
  0
3DFACE
  8
Building Shading
 62
195
 10
       -5.37500
 20
        3.50000
 30
        0.00000
 11
        5.62500
 21
        3.50000
 31
        0.00000
 12
        5.62500
 22
       -8.49571
 32
        0.00000
 13
       -5.37500
 23
       -8.49571
 33
        0.00000
999
Building Shading:Mir-GROUDZERO - COMPONENT BLOCK 2 - SURFACE 4 (4)
  0
3DFACE
  8
Building Shading
 62
195
 10
       -5.37500
 20
       -8.49571
 30
        0.00000
 11
        5.62500
 21
       -8.49571
 31
        0.00000
 12
        5.62500
 22
        3.50000
 32
        0.00000
 13
       -5.37500
 23
        3.50000
 33
        0.00000
999
Building Shading:GROUDZERO - COMPONENT BLOCK 2 - SURFACE 5 (5)
  0
3DFACE
  8
Building Shading
 62
195
 10
       -5.37500
 20
        3.50000
 30
        3.50000
 11
       -5.37500
 21
        3.50000
 31
        0.00000
 12
       -5.37500
 22
       -8.49571
 32
        0.00000
 13
       -5.37500
 23
       -8.49571
 33
        3.50000
999
Building Shading:Mir-GROUDZERO - COMPONENT BLOCK 2 - SURFACE 5 (5)
  0
3DFACE
  8
Building Shading
 62
195
 10
       -5.37500
 20
       -8.49571
 30
        3.50000
 11
       -5.37500
 21
       -8.49571
 31
        0.00000
 12
       -5.37500
 22
        3.50000
 32
        0.00000
 13
       -5.37500
 23
        3.50000
 33
        3.50000
999
Building Shading:GROUDZERO - COMPONENT BLOCK 2 - SURFACE 6 (6)
  0
3DFACE
  8
Building Shading
 62
195
 10
        5.62500
 20
        3.50000
 30
        3.50000
 11
        5.62500
 21
        3.50000
 31
        0.00000
 12
       -5.37500
 22
        3.50000
 32
        0.00000
 13
       -5.37500
 23
        3.50000
 33
        3.50000
999
Building Shading:Mir-GROUDZERO - COMPONENT BLOCK 2 - SURFACE 6 (6)
  0
3DFACE
  8
Building Shading
 62
195
 10
       -5.37500
 20
        3.50000
 30
        3.50000
 11
       -5.37500
 21
        3.50000
 31
        0.00000
 12
        5.62500
 22
        3.50000
 32
        0.00000
 13
        5.62500
 23
        3.50000
 33
        3.50000
999
Building Shading:GROUDZERO - COMPONENT BLOCK 1 - SURFACE 1 (7)
  0
3DFACE
  8
Building Shading
 62
195
 10
       -5.37500
 20
       -8.49943
 30
       11.00067
 11
        5.62500
 21
       -8.49943
 31
       11.00067
 12
        5.62500
 22
        8.50000
 32
       11.00067
 13
       -5.37500
 23
        8.50000
 33
       11.00067
999
Building Shading:Mir-GROUDZERO - COMPONENT BLOCK 1 - SURFACE 1 (7)
  0
3DFACE
  8
Building Shading
 62
195
 10
       -5.37500
 20
        8.50000
 30
       11.00067
 11
        5.62500
 21
        8.50000
 31
       11.00067
 12
        5.62500
 22
       -8.49943
 32
       11.00067
 13
       -5.37500
 23
       -8.49943
 33
       11.00067
999
Building Shading:GROUDZERO - COMPONENT BLOCK 1 - SURFACE 2 (8)
  0
3DFACE
  8
Building Shading
 62
195
 10
        5.62500
 20
       -8.49943
 30
       11.00067
 11
        5.62500
 21
       -8.49943
 31
        3.50000
 12
        5.62500
 22
        8.50000
 32
        3.50000
 13
        5.62500
 23
        8.50000
 33
       11.00067
999
Building Shading:Mir-GROUDZERO - COMPONENT BLOCK 1 - SURFACE 2 (8)
  0
3DFACE
  8
Building Shading
 62
195
 10
        5.62500
 20
        8.50000
 30
       11.00067
 11
        5.62500
 21
        8.50000
 31
        3.50000
 12
        5.62500
 22
       -8.49943
 32
        3.50000
 13
        5.62500
 23
       -8.49943
 33
       11.00067
999
Building Shading:GROUDZERO - COMPONENT BLOCK 1 - SURFACE 3 (9)
  0
3DFACE
  8
Building Shading
 62
195
 10
       -5.37500
 20
       -8.49943
 30
       11.00067
 11
       -5.37500
 21
       -8.49943
 31
        3.50000
 12
        5.62500
 22
       -8.49943
 32
        3.50000
 13
        5.62500
 23
       -8.49943
 33
       11.00067
999
Building Shading:Mir-GROUDZERO - COMPONENT BLOCK 1 - SURFACE 3 (9)
  0
3DFACE
  8
Building Shading
 62
195
 10
        5.62500
 20
       -8.49943
 30
       11.00067
 11
        5.62500
 21
       -8.49943
 31
        3.50000
 12
       -5.37500
 22
       -8.49943
 32
        3.50000
 13
       -5.37500
 23
       -8.49943
 33
       11.00067
999
Building Shading:GROUDZERO - COMPONENT BLOCK 1 - SURFACE 4 (10)
  0
3DFACE
  8
Building Shading
 62
195
 10
        5.62500
 20
        8.50000
 30
       11.00067
 11
        5.62500
 21
        8.50000
 31
        3.50000
 12
       -5.37500
 22
        8.50000
 32
        3.50000
 13
       -5.37500
 23
        8.50000
 33
       11.00067
999
Building Shading:Mir-GROUDZERO - COMPONENT BLOCK 1 - SURFACE 4 (10)
  0
3DFACE
  8
Building Shading
 62
195
 10
       -5.37500
 20
        8.50000
 30
       11.00067
 11
       -5.37500
 21
        8.50000
 31
        3.50000
 12
        5.62500
 22
        8.50000
 32
        3.50000
 13
        5.62500
 23
        8.50000
 33
       11.00067
999
Building Shading:GROUDZERO - COMPONENT BLOCK 1 - SURFACE 5 (11)
  0
3DFACE
  8
Building Shading
 62
195
 10
       -5.37500
 20
        8.50000
 30
       11.00067
 11
       -5.37500
 21
        8.50000
 31
        3.50000
 12
       -5.37500
 22
       -8.49943
 32
        3.50000
 13
       -5.37500
 23
       -8.49943
 33
       11.00067
999
Building Shading:Mir-GROUDZERO - COMPONENT BLOCK 1 - SURFACE 5 (11)
  0
3DFACE
  8
Building Shading
 62
195
 10
       -5.37500
 20
       -8.49943
 30
       11.00067
 11
       -5.37500
 21
       -8.49943
 31
        3.50000
 12
       -5.37500
 22
        8.50000
 32
        3.50000
 13
       -5.37500
 23
        8.50000
 33
       11.00067
999
Building Shading:GROUDZERO - COMPONENT BLOCK 1 - SURFACE 6 (12)
  0
3DFACE
  8
Building Shading
 62
195
 10
       -5.37500
 20
        8.50000
 30
        3.50000
 11
        5.62500
 21
        8.50000
 31
        3.50000
 12
        5.62500
 22
       -8.49943
 32
        3.50000
 13
       -5.37500
 23
       -8.49943
 33
        3.50000
999
Building Shading:Mir-GROUDZERO - COMPONENT BLOCK 1 - SURFACE 6 (12)
  0
3DFACE
  8
Building Shading
 62
195
 10
       -5.37500
 20
       -8.49943
 30
        3.50000
 11
        5.62500
 21
       -8.49943
 31
        3.50000
 12
        5.62500
 22
        8.50000
 32
        3.50000
 13
       -5.37500
 23
        8.50000
 33
        3.50000
999
Building Shading:GROUDZERO - COMPONENT BLOCK 3 - SURFACE 1 (13)
  0
3DFACE
  8
Building Shading
 62
195
 10
        0.12500
 20
        8.50000
 30
       14.34930
 11
       -5.67500
 21
        8.50000
 31
       11.00067
 12
       -5.67500
 22
       -8.49943
 32
       11.00067
 13
        0.12500
 23
       -8.49943
 33
       14.34930
999
Building Shading:Mir-GROUDZERO - COMPONENT BLOCK 3 - SURFACE 1 (13)
  0
3DFACE
  8
Building Shading
 62
195
 10
        0.12500
 20
       -8.49943
 30
       14.34930
 11
       -5.67500
 21
       -8.49943
 31
       11.00067
 12
       -5.67500
 22
        8.50000
 32
       11.00067
 13
        0.12500
 23
        8.50000
 33
       14.34930
999
Building Shading:GROUDZERO - COMPONENT BLOCK 3 - SURFACE 2 (14)
  0
3DFACE
  8
Building Shading
 62
195
 10
        0.12500
 20
        8.50000
 30
       14.34930
 11
        5.92500
 21
        8.50000
 31
       11.00067
 12
       -5.67500
 22
        8.50000
 32
       11.00067
 13
       -5.67500
 23
        8.50000
 33
       11.00067
999
Building Shading:Mir-GROUDZERO - COMPONENT BLOCK 3 - SURFACE 2 (14)
  0
3DFACE
  8
Building Shading
 62
195
 10
       -5.67500
 20
        8.50000
 30
       11.00067
 11
        5.92500
 21
        8.50000
 31
       11.00067
 12
        0.12500
 22
        8.50000
 32
       14.34930
 13
        0.12500
 23
        8.50000
 33
       14.34930
999
Building Shading:GROUDZERO - COMPONENT BLOCK 3 - SURFACE 3 (15)
  0
3DFACE
  8
Building Shading
 62
195
 10
        0.12500
 20
       -8.49943
 30
       14.34930
 11
        5.92500
 21
       -8.49943
 31
       11.00067
 12
        5.92500
 22
        8.50000
 32
       11.00067
 13
        0.12500
 23
        8.50000
 33
       14.34930
999
Building Shading:Mir-GROUDZERO - COMPONENT BLOCK 3 - SURFACE 3 (15)
  0
3DFACE
  8
Building Shading
 62
195
 10
        0.12500
 20
        8.50000
 30
       14.34930
 11
        5.92500
 21
        8.50000
 31
       11.00067
 12
        5.92500
 22
       -8.49943
 32
       11.00067
 13
        0.12500
 23
       -8.49943
 33
       14.34930
999
Building Shading:GROUDZERO - COMPONENT BLOCK 3 - SURFACE 4 (16)
  0
3DFACE
  8
Building Shading
 62
195
 10
        0.12500
 20
       -8.49943
 30
       14.34930
 11
       -5.67500
 21
       -8.49943
 31
       11.00067
 12
        5.92500
 22
       -8.49943
 32
       11.00067
 13
        5.92500
 23
       -8.49943
 33
       11.00067
999
Building Shading:Mir-GROUDZERO - COMPONENT BLOCK 3 - SURFACE 4 (16)
  0
3DFACE
  8
Building Shading
 62
195
 10
        5.92500
 20
       -8.49943
 30
       11.00067
 11
       -5.67500
 21
       -8.49943
 31
       11.00067
 12
        0.12500
 22
       -8.49943
 32
       14.34930
 13
        0.12500
 23
       -8.49943
 33
       14.34930
999
Building Shading:GROUDZERO - COMPONENT BLOCK 3 - SURFACE 5 (17)
  0
3DFACE
  8
Building Shading
 62
195
 10
       -5.67500
 20
        8.50000
 30
       11.00067
 11
        5.92500
 21
        8.50000
 31
       11.00067
 12
        5.92500
 22
       -8.49943
 32
       11.00067
 13
       -5.67500
 23
       -8.49943
 33
       11.00067
999
Building Shading:Mir-GROUDZERO - COMPONENT BLOCK 3 - SURFACE 5 (17)
  0
3DFACE
  8
Building Shading
 62
195
 10
       -5.67500
 20
       -8.49943
 30
       11.00067
 11
        5.92500
 21
       -8.49943
 31
       11.00067
 12
        5.92500
 22
        8.50000
 32
       11.00067
 13
       -5.67500
 23
        8.50000
 33
       11.00067
999
Building Shading:GROUDZERO - COMPONENT BLOCK 4 - SURFACE 1 (18)
  0
3DFACE
  8
Building Shading
 62
195
 10
       -5.37500
 20
       -8.49571
 30
        0.00000
 11
        5.62500
 21
       -8.49571
 31
        0.00000
 12
        5.62500
 22
        8.50000
 32
        0.00000
 13
       -5.37500
 23
        8.50000
 33
        0.00000
999
Building Shading:Mir-GROUDZERO - COMPONENT BLOCK 4 - SURFACE 1 (18)
  0
3DFACE
  8
Building Shading
 62
195
 10
       -5.37500
 20
        8.50000
 30
        0.00000
 11
        5.62500
 21
        8.50000
 31
        0.00000
 12
        5.62500
 22
       -8.49571
 32
        0.00000
 13
       -5.37500
 23
       -8.49571
 33
        0.00000
999
Building Shading:GROUDZERO - COMPONENT BLOCK 4 - SURFACE 2 (19)
  0
3DFACE
  8
Building Shading
 62
195
 10
       -5.37500
 20
        8.50000
 30
       -1.50000
 11
        5.62500
 21
        8.50000
 31
       -1.50000
 12
        5.62500
 22
       -8.49571
 32
       -1.50000
 13
       -5.37500
 23
       -8.49571
 33
       -1.50000
999
Building Shading:Mir-GROUDZERO - COMPONENT BLOCK 4 - SURFACE 2 (19)
  0
3DFACE
  8
Building Shading
 62
195
 10
       -5.37500
 20
       -8.49571
 30
       -1.50000
 11
        5.62500
 21
       -8.49571
 31
       -1.50000
 12
        5.62500
 22
        8.50000
 32
       -1.50000
 13
       -5.37500
 23
        8.50000
 33
       -1.50000
999
Building Shading:GROUDZERO - COMPONENT BLOCK 4 - SURFACE 3 (20)
  0
3DFACE
  8
Building Shading
 62
195
 10
        5.62500
 20
       -8.49571
 30
        0.00000
 11
        5.62500
 21
       -8.49571
 31
       -1.50000
 12
        5.62500
 22
        8.50000
 32
       -1.50000
 13
        5.62500
 23
        8.50000
 33
        0.00000
999
Building Shading:Mir-GROUDZERO - COMPONENT BLOCK 4 - SURFACE 3 (20)
  0
3DFACE
  8
Building Shading
 62
195
 10
        5.62500
 20
        8.50000
 30
        0.00000
 11
        5.62500
 21
        8.50000
 31
       -1.50000
 12
        5.62500
 22
       -8.49571
 32
       -1.50000
 13
        5.62500
 23
       -8.49571
 33
        0.00000
999
Building Shading:GROUDZERO - COMPONENT BLOCK 4 - SURFACE 4 (21)
  0
3DFACE
  8
Building Shading
 62
195
 10
        5.62500
 20
        8.50000
 30
        0.00000
 11
        5.62500
 21
        8.50000
 31
       -1.50000
 12
       -5.37500
 22
        8.50000
 32
       -1.50000
 13
       -5.37500
 23
        8.50000
 33
        0.00000
999
Building Shading:Mir-GROUDZERO - COMPONENT BLOCK 4 - SURFACE 4 (21)
  0
3DFACE
  8
Building Shading
 62
195
 10
       -5.37500
 20
        8.50000
 30
        0.00000
 11
       -5.37500
 21
        8.50000
 31
       -1.50000
 12
        5.62500
 22
        8.50000
 32
       -1.50000
 13
        5.62500
 23
        8.50000
 33
        0.00000
999
Building Shading:GROUDZERO - COMPONENT BLOCK 4 - SURFACE 5 (22)
  0
3DFACE
  8
Building Shading
 62
195
 10
       -5.37500
 20
        8.50000
 30
        0.00000
 11
       -5.37500
 21
        8.50000
 31
       -1.50000
 12
       -5.37500
 22
       -8.49571
 32
       -1.50000
 13
       -5.37500
 23
       -8.49571
 33
        0.00000
999
Building Shading:Mir-GROUDZERO - COMPONENT BLOCK 4 - SURFACE 5 (22)
  0
3DFACE
  8
Building Shading
 62
195
 10
       -5.37500
 20
       -8.49571
 30
        0.00000
 11
       -5.37500
 21
       -8.49571
 31
       -1.50000
 12
       -5.37500
 22
        8.50000
 32
       -1.50000
 13
       -5.37500
 23
        8.50000
 33
        0.00000
999
Building Shading:GROUDZERO - COMPONENT BLOCK 4 - SURFACE 6 (23)
  0
3DFACE
  8
Building Shading
 62
195
 10
       -5.37500
 20
       -8.49571
 30
        0.00000
 11
       -5.37500
 21
       -8.49571
 31
       -1.50000
 12
        5.62500
 22
       -8.49571
 32
       -1.50000
 13
        5.62500
 23
       -8.49571
 33
        0.00000
999
Building Shading:Mir-GROUDZERO - COMPONENT BLOCK 4 - SURFACE 6 (23)
  0
3DFACE
  8
Building Shading
 62
195
 10
        5.62500
 20
       -8.49571
 30
        0.00000
 11
        5.62500
 21
       -8.49571
 31
       -1.50000
 12
       -5.37500
 22
       -8.49571
 32
       -1.50000
 13
       -5.37500
 23
       -8.49571
 33
        0.00000
999
BLOCK1:ZONE3:BLOCK1:ZONE3_PARTITION_2_0_0
  0
3DFACE
  8
BLOCK1_ZONE3
 62
 43
 10
        0.62290
 20
        5.50000
 30
        3.50000
 11
        0.62290
 21
        5.50000
 31
        0.00000
 12
       -1.37500
 22
        5.50000
 32
        0.00000
 13
       -1.37500
 23
        5.50000
 33
        3.50000
999
BLOCK1:ZONE3:BLOCK1:ZONE3_PARTITION_3_0_0
  0
3DFACE
  8
BLOCK1_ZONE3
 62
 43
 10
       -1.37500
 20
        5.50000
 30
        3.50000
 11
       -1.37500
 21
        5.50000
 31
        0.00000
 12
       -1.37500
 22
        3.50000
 32
        0.00000
 13
       -1.37500
 23
        3.50000
 33
        3.50000
999
BLOCK1:ZONE3:BLOCK1:ZONE3_PARTITION_4_0_0
  0
3DFACE
  8
BLOCK1_ZONE3
 62
 43
 10
       -1.37500
 20
        3.50000
 30
        3.50000
 11
       -1.37500
 21
        3.50000
 31
        0.00000
 12
        5.62500
 22
        3.50000
 32
        0.00000
 13
        5.62500
 23
        3.50000
 33
        3.50000
999
BLOCK1:ZONE3:BLOCK1:ZONE3_WALL_5_0_0
  0
3DFACE
  8
BLOCK1_ZONE3
 62
 43
 10
        5.62500
 20
        3.50000
 30
        3.50000
 11
        5.62500
 21
        3.50000
 31
        0.00000
 12
        5.62500
 22
        8.50000
 32
        0.00000
 13
        5.62500
 23
        8.50000
 33
        3.50000
999
BLOCK1:ZONE3:BLOCK1:ZONE3_WALL_5_0_0_0_0_0_WIN
  0
3DFACE
  8
BLOCK1_ZONE3
 62
143
 10
        5.62500
 20
        4.35625
 30
        2.36000
 11
        5.62500
 21
        4.35625
 31
        0.94000
 12
        5.62500
 22
        7.42655
 32
        0.94000
 13
        5.62500
 23
        7.42655
 33
        2.36000
999
BLOCK1:ZONE3:BLOCK1:ZONE3_WALL_6_0_0
  0
3DFACE
  8
BLOCK1_ZONE3
 62
 43
 10
        5.62500
 20
        8.50000
 30
        3.50000
 11
        5.62500
 21
        8.50000
 31
        0.00000
 12
        0.62290
 22
        8.50000
 32
        0.00000
 13
        0.62290
 23
        8.50000
 33
        3.50000
999
BLOCK1:ZONE3:BLOCK1:ZONE3_PARTITION_7_0_0
  0
3DFACE
  8
BLOCK1_ZONE3
 62
 43
 10
        0.62290
 20
        8.50000
 30
        3.50000
 11
        0.62290
 21
        8.50000
 31
        0.00000
 12
        0.62290
 22
        5.50000
 32
        0.00000
 13
        0.62290
 23
        5.50000
 33
        3.50000
999
BLOCK1:ZONE3:BLOCK1:ZONE3_FLOOR_0_0_0
  0
3DFACE
  8
BLOCK1_ZONE3
 62
  8
 10
       -1.37500
 20
        5.50000
 30
        0.00000
 11
        0.62290
 21
        5.50000
 31
        0.00000
 12
        0.62290
 22
        3.50000
 32
        0.00000
 13
       -1.37500
 23
        3.50000
 33
        0.00000
999
BLOCK1:ZONE3:BLOCK1:ZONE3_FLOOR_0_0_1
  0
3DFACE
  8
BLOCK1_ZONE3
 62
  8
 10
        0.62290
 20
        8.50000
 30
        0.00000
 11
        5.62500
 21
        8.50000
 31
        0.00000
 12
        5.62500
 22
        3.50000
 32
        0.00000
 13
        0.62290
 23
        3.50000
 33
        0.00000
999
BLOCK1:ZONE3:BLOCK1:ZONE3_CEILING_1_0_0
  0
3DFACE
  8
BLOCK1_ZONE3
 62
 15
 10
        0.62290
 20
        5.50000
 30
        3.50000
 11
        5.62500
 21
        5.50000
 31
        3.50000
 12
        5.62500
 22
        8.50000
 32
        3.50000
 13
        0.62290
 23
        8.50000
 33
        3.50000
999
BLOCK1:ZONE3:BLOCK1:ZONE3_CEILING_1_0_1
  0
3DFACE
  8
BLOCK1_ZONE3
 62
 15
 10
       -1.37500
 20
        3.50000
 30
        3.50000
 11
        5.62500
 21
        3.50000
 31
        3.50000
 12
        5.62500
 22
        5.50000
 32
        3.50000
 13
       -1.37500
 23
        5.50000
 33
        3.50000
999
BLOCK1:ZONE1:BLOCK1:ZONE1_PARTITION_4_0_10004
  0
3DFACE
  8
BLOCK1_ZONE1
 62
 43
 10
       -1.37500
 20
        5.50000
 30
        3.50000
 11
       -1.37500
 21
        5.50000
 31
        0.00000
 12
        0.62290
 22
        5.50000
 32
        0.00000
 13
        0.62290
 23
        5.50000
 33
        3.50000
999
BLOCK1:ZONE1:BLOCK1:ZONE1_PARTITION_5_0_10007
  0
3DFACE
  8
BLOCK1_ZONE1
 62
 43
 10
        0.62290
 20
        5.50000
 30
        3.50000
 11
        0.62290
 21
        5.50000
 31
        0.00000
 12
        0.62290
 22
        8.50000
 32
        0.00000
 13
        0.62290
 23
        8.50000
 33
        3.50000
999
BLOCK1:ZONE1:BLOCK1:ZONE1_WALL_2_0_0
  0
3DFACE
  8
BLOCK1_ZONE1
 62
 43
 10
        0.62290
 20
        8.50000
 30
        3.50000
 11
        0.62290
 21
        8.50000
 31
        0.00000
 12
       -1.37500
 22
        8.50000
 32
        0.00000
 13
       -1.37500
 23
        8.50000
 33
        3.50000
999
BLOCK1:ZONE1:BLOCK1:ZONE1_WALL_2_0_0_0_0_0_WIN
  0
3DFACE
  8
BLOCK1_ZONE1
 62
143
 10
        0.21223
 20
        8.50000
 30
        2.36000
 11
        0.21223
 21
        8.50000
 31
        0.94000
 12
       -0.96434
 22
        8.50000
 32
        0.94000
 13
       -0.96434
 23
        8.50000
 33
        2.36000
999
BLOCK1:ZONE1:BLOCK1:ZONE1_PARTITION_3_0_0
  0
3DFACE
  8
BLOCK1_ZONE1
 62
 43
 10
       -1.37500
 20
        8.50000
 30
        3.50000
 11
       -1.37500
 21
        8.50000
 31
        0.00000
 12
       -1.37500
 22
        5.50000
 32
        0.00000
 13
       -1.37500
 23
        5.50000
 33
        3.50000
999
BLOCK1:ZONE1:BLOCK1:ZONE1_FLOOR_0_0_0
  0
3DFACE
  8
BLOCK1_ZONE1
 62
  8
 10
       -1.37500
 20
        8.50000
 30
        0.00000
 11
        0.62290
 21
        8.50000
 31
        0.00000
 12
        0.62290
 22
        5.50000
 32
        0.00000
 13
       -1.37500
 23
        5.50000
 33
        0.00000
999
BLOCK1:ZONE1:BLOCK1:ZONE1_CEILING_1_0_0
  0
3DFACE
  8
BLOCK1_ZONE1
 62
 15
 10
       -1.37500
 20
        5.50000
 30
        3.50000
 11
        0.62290
 21
        5.50000
 31
        3.50000
 12
        0.62290
 22
        8.50000
 32
        3.50000
 13
       -1.37500
 23
        8.50000
 33
        3.50000
999
BLOCK1:ZONE2:BLOCK1:ZONE2_PARTITION_5_0_10005
  0
3DFACE
  8
BLOCK1_ZONE2
 62
 43
 10
       -1.37500
 20
        3.50000
 30
        3.50000
 11
       -1.37500
 21
        3.50000
 31
        0.00000
 12
       -1.37500
 22
        5.50000
 32
        0.00000
 13
       -1.37500
 23
        5.50000
 33
        3.50000
999
BLOCK1:ZONE2:BLOCK1:ZONE2_PARTITION_6_0_10010
  0
3DFACE
  8
BLOCK1_ZONE2
 62
 43
 10
       -1.37500
 20
        5.50000
 30
        3.50000
 11
       -1.37500
 21
        5.50000
 31
        0.00000
 12
       -1.37500
 22
        8.50000
 32
        0.00000
 13
       -1.37500
 23
        8.50000
 33
        3.50000
999
BLOCK1:ZONE2:BLOCK1:ZONE2_WALL_2_0_0
  0
3DFACE
  8
BLOCK1_ZONE2
 62
 43
 10
       -1.37500
 20
        8.50000
 30
        3.50000
 11
       -1.37500
 21
        8.50000
 31
        0.00000
 12
       -5.37500
 22
        8.50000
 32
        0.00000
 13
       -5.37500
 23
        8.50000
 33
        3.50000
999
BLOCK1:ZONE2:BLOCK1:ZONE2_WALL_3_0_0
  0
3DFACE
  8
BLOCK1_ZONE2
 62
 43
 10
       -5.37500
 20
        8.50000
 30
        3.50000
 11
       -5.37500
 21
        8.50000
 31
        0.00000
 12
       -5.37500
 22
        3.50000
 32
        0.00000
 13
       -5.37500
 23
        3.50000
 33
        3.50000
999
BLOCK1:ZONE2:BLOCK1:ZONE2_WALL_3_0_0_0_0_0_WIN
  0
3DFACE
  8
BLOCK1_ZONE2
 62
143
 10
       -5.37500
 20
        7.42655
 30
        2.36000
 11
       -5.37500
 21
        7.42655
 31
        0.94000
 12
       -5.37500
 22
        4.35625
 32
        0.94000
 13
       -5.37500
 23
        4.35625
 33
        2.36000
999
BLOCK1:ZONE2:BLOCK1:ZONE2_PARTITION_4_0_0
  0
3DFACE
  8
BLOCK1_ZONE2
 62
 43
 10
       -5.37500
 20
        3.50000
 30
        3.50000
 11
       -5.37500
 21
        3.50000
 31
        0.00000
 12
       -1.37500
 22
        3.50000
 32
        0.00000
 13
       -1.37500
 23
        3.50000
 33
        3.50000
999
BLOCK1:ZONE2:BLOCK1:ZONE2_FLOOR_0_0_0
  0
3DFACE
  8
BLOCK1_ZONE2
 62
  8
 10
       -5.37500
 20
        8.50000
 30
        0.00000
 11
       -1.37500
 21
        8.50000
 31
        0.00000
 12
       -1.37500
 22
        3.50000
 32
        0.00000
 13
       -5.37500
 23
        3.50000
 33
        0.00000
999
BLOCK1:ZONE2:BLOCK1:ZONE2_CEILING_1_0_0
  0
3DFACE
  8
BLOCK1_ZONE2
 62
 15
 10
       -5.37500
 20
        3.50000
 30
        3.50000
 11
       -1.37500
 21
        3.50000
 31
        3.50000
 12
       -1.37500
 22
        8.50000
 32
        3.50000
 13
       -5.37500
 23
        8.50000
 33
        3.50000
999
BLOCK1:ZONE3:DayRefPt:1
  0
CIRCLE
  8
BLOCK1_ZONE3
 62
 10
 10
        3.12400
 20
        6.00000
 30
        0.90000
 40
        0.20000
999
BLOCK1:ZONE1:DayRefPt:1
  0
CIRCLE
  8
BLOCK1_ZONE1
 62
 10
 10
       -0.37600
 20
        7.00000
 30
        0.90000
 40
        0.20000
999
BLOCK1:ZONE2:DayRefPt:1
  0
CIRCLE
  8
BLOCK1_ZONE2
 62
 10
 10
       -3.37500
 20
        6.00000
 30
        0.90000
 40
        0.20000
999
BLOCK1:ZONE3:DEDayRefPt:1
  0
CIRCLE
  8
BLOCK1_ZONE3
 62
 10
 10
        3.12400
 20
        6.00000
 30
        0.90000
 40
        0.20000
999
BLOCK1:ZONE1:DEDayRefPt:1
  0
CIRCLE
  8
BLOCK1_ZONE1
 62
 10
 10
       -0.37600
 20
        7.00000
 30
        0.90000
 40
        0.20000
999
BLOCK1:ZONE2:DEDayRefPt:1
  0
CIRCLE
  8
BLOCK1_ZONE2
 62
 10
 10
       -3.37500
 20
        6.00000
 30
        0.90000
 40
        0.20000
  0
ENDSEC
  0
EOF
