  0
SECTION
  2
ENTITIES
999
DXF created from EnergyPlus
999
Program Version,EnergyPlus, Version 9.0.1-bb7ca4f0da, YMD=2020.12.13 21:13
999
Polygon Action,TRIANGULATE3DFACE
999
Color Scheme,Default
999
Text - True North
  0
TEXT
  8
1
  6
Continuous
 62
  3
 10
      -19.50000
 20
       -2.67500
 30
        0.10000
 40
 .25
  1
True North
 41
 0.0
  7
MONOTXT
210
0.0
220
0.0
230
1.0
999
Text - Building Title
  0
TEXT
  8
1
  6
Continuous
 62
  3
 10
      -22.50000
 20
       -6.67500
 30
        0.10000
 40
 .4
  1
Building - Building
 41
 0.0
  7
MONOTXT
210
0.0
220
0.0
230
1.0
999
North Arrow Stem
  0
3DFACE
  8
1
 62
  3
 10
      -18.50000
 20
       -2.67500
 30
        0.10000
 11
      -18.50000
 21
       -2.67500
 31
        0.00000
 12
      -18.50000
 22
       -5.67500
 32
        0.00000
 13
      -18.50000
 23
       -5.67500
 33
        0.10000
999
North Arrow Head 1
  0
3DFACE
  8
1
 62
  3
 10
      -18.50000
 20
       -2.67500
 30
        0.10000
 11
      -18.50000
 21
       -2.67500
 31
        0.00000
 12
      -19.00000
 22
       -3.54103
 32
        0.00000
 13
      -19.00000
 23
       -3.54103
 33
        0.10000
999
North Arrow Head 2
  0
3DFACE
  8
1
 62
  3
 10
      -18.50000
 20
       -2.67500
 30
        0.10000
 11
      -18.50000
 21
       -2.67500
 31
        0.00000
 12
      -18.00000
 22
       -3.54103
 32
        0.00000
 13
      -18.00000
 23
       -3.54103
 33
        0.10000
999
North Arrow Side 1
  0
3DFACE
  8
1
 62
  3
 10
      -19.00000
 20
       -1.17500
 30
        0.10000
 11
      -19.00000
 21
       -1.17500
 31
        0.00000
 12
      -19.00000
 22
       -2.17500
 32
        0.00000
 13
      -19.00000
 23
       -2.17500
 33
        0.10000
999
North Arrow Side 2
  0
3DFACE
  8
1
 62
  3
 10
      -19.00000
 20
       -1.17500
 30
        0.10000
 11
      -19.00000
 21
       -1.17500
 31
        0.00000
 12
      -18.00000
 22
       -2.17500
 32
        0.00000
 13
      -18.00000
 23
       -2.17500
 33
        0.10000
999
North Arrow Side 3
  0
3DFACE
  8
1
 62
  3
 10
      -18.00000
 20
       -1.17500
 30
        0.10000
 11
      -18.00000
 21
       -1.17500
 31
        0.00000
 12
      -18.00000
 22
       -2.17500
 32
        0.00000
 13
      -18.00000
 23
       -2.17500
 33
        0.10000
999
Zone Names
999
Zone=1:BLOCK1_ZONE3
999
Zone=2:BLOCK1_ZONE1
999
Zone=3:BLOCK1_ZONE2
999
Building Shading:GROUDZERO - COMPONENT BLOCK 2 - SURFACE 1 (1)
  0
3DFACE
  8
Building Shading
 62
195
 10
        8.49571
 20
       -5.37500
 30
        3.50000
 11
        8.49571
 21
       -5.37500
 31
        0.00000
 12
        8.49571
 22
        5.62500
 32
        0.00000
 13
        8.49571
 23
        5.62500
 33
        3.50000
999
Building Shading:Mir-GROUDZERO - COMPONENT BLOCK 2 - SURFACE 1 (1)
  0
3DFACE
  8
Building Shading
 62
195
 10
        8.49571
 20
        5.62500
 30
        3.50000
 11
        8.49571
 21
        5.62500
 31
        0.00000
 12
        8.49571
 22
       -5.37500
 32
        0.00000
 13
        8.49571
 23
       -5.37500
 33
        3.50000
999
Building Shading:GROUDZERO - COMPONENT BLOCK 2 - SURFACE 2 (2)
  0
3DFACE
  8
Building Shading
 62
195
 10
        8.49571
 20
       -5.37500
 30
        3.50000
 11
        8.49571
 21
        5.62500
 31
        3.50000
 12
       -3.50000
 22
        5.62500
 32
        3.50000
 13
       -3.50000
 23
       -5.37500
 33
        3.50000
999
Building Shading:Mir-GROUDZERO - COMPONENT BLOCK 2 - SURFACE 2 (2)
  0
3DFACE
  8
Building Shading
 62
195
 10
       -3.50000
 20
       -5.37500
 30
        3.50000
 11
       -3.50000
 21
        5.62500
 31
        3.50000
 12
        8.49571
 22
        5.62500
 32
        3.50000
 13
        8.49571
 23
       -5.37500
 33
        3.50000
999
Building Shading:GROUDZERO - COMPONENT BLOCK 2 - SURFACE 3 (3)
  0
3DFACE
  8
Building Shading
 62
195
 10
        8.49571
 20
        5.62500
 30
        3.50000
 11
        8.49571
 21
        5.62500
 31
        0.00000
 12
       -3.50000
 22
        5.62500
 32
        0.00000
 13
       -3.50000
 23
        5.62500
 33
        3.50000
999
Building Shading:Mir-GROUDZERO - COMPONENT BLOCK 2 - SURFACE 3 (3)
  0
3DFACE
  8
Building Shading
 62
195
 10
       -3.50000
 20
        5.62500
 30
        3.50000
 11
       -3.50000
 21
        5.62500
 31
        0.00000
 12
        8.49571
 22
        5.62500
 32
        0.00000
 13
        8.49571
 23
        5.62500
 33
        3.50000
999
Building Shading:GROUDZERO - COMPONENT BLOCK 2 - SURFACE 4 (4)
  0
3DFACE
  8
Building Shading
 62
195
 10
       -3.50000
 20
       -5.37500
 30
        0.00000
 11
       -3.50000
 21
        5.62500
 31
        0.00000
 12
        8.49571
 22
        5.62500
 32
        0.00000
 13
        8.49571
 23
       -5.37500
 33
        0.00000
999
Building Shading:Mir-GROUDZERO - COMPONENT BLOCK 2 - SURFACE 4 (4)
  0
3DFACE
  8
Building Shading
 62
195
 10
        8.49571
 20
       -5.37500
 30
        0.00000
 11
        8.49571
 21
        5.62500
 31
        0.00000
 12
       -3.50000
 22
        5.62500
 32
        0.00000
 13
       -3.50000
 23
       -5.37500
 33
        0.00000
999
Building Shading:GROUDZERO - COMPONENT BLOCK 2 - SURFACE 5 (5)
  0
3DFACE
  8
Building Shading
 62
195
 10
       -3.50000
 20
       -5.37500
 30
        3.50000
 11
       -3.50000
 21
       -5.37500
 31
        0.00000
 12
        8.49571
 22
       -5.37500
 32
        0.00000
 13
        8.49571
 23
       -5.37500
 33
        3.50000
999
Building Shading:Mir-GROUDZERO - COMPONENT BLOCK 2 - SURFACE 5 (5)
  0
3DFACE
  8
Building Shading
 62
195
 10
        8.49571
 20
       -5.37500
 30
        3.50000
 11
        8.49571
 21
       -5.37500
 31
        0.00000
 12
       -3.50000
 22
       -5.37500
 32
        0.00000
 13
       -3.50000
 23
       -5.37500
 33
        3.50000
999
Building Shading:GROUDZERO - COMPONENT BLOCK 2 - SURFACE 6 (6)
  0
3DFACE
  8
Building Shading
 62
195
 10
       -3.50000
 20
        5.62500
 30
        3.50000
 11
       -3.50000
 21
        5.62500
 31
        0.00000
 12
       -3.50000
 22
       -5.37500
 32
        0.00000
 13
       -3.50000
 23
       -5.37500
 33
        3.50000
999
Building Shading:Mir-GROUDZERO - COMPONENT BLOCK 2 - SURFACE 6 (6)
  0
3DFACE
  8
Building Shading
 62
195
 10
       -3.50000
 20
       -5.37500
 30
        3.50000
 11
       -3.50000
 21
       -5.37500
 31
        0.00000
 12
       -3.50000
 22
        5.62500
 32
        0.00000
 13
       -3.50000
 23
        5.62500
 33
        3.50000
999
Building Shading:GROUDZERO - COMPONENT BLOCK 1 - SURFACE 1 (7)
  0
3DFACE
  8
Building Shading
 62
195
 10
        8.49943
 20
       -5.37500
 30
       11.00067
 11
        8.49943
 21
        5.62500
 31
       11.00067
 12
       -8.50000
 22
        5.62500
 32
       11.00067
 13
       -8.50000
 23
       -5.37500
 33
       11.00067
999
Building Shading:Mir-GROUDZERO - COMPONENT BLOCK 1 - SURFACE 1 (7)
  0
3DFACE
  8
Building Shading
 62
195
 10
       -8.50000
 20
       -5.37500
 30
       11.00067
 11
       -8.50000
 21
        5.62500
 31
       11.00067
 12
        8.49943
 22
        5.62500
 32
       11.00067
 13
        8.49943
 23
       -5.37500
 33
       11.00067
999
Building Shading:GROUDZERO - COMPONENT BLOCK 1 - SURFACE 2 (8)
  0
3DFACE
  8
Building Shading
 62
195
 10
        8.49943
 20
        5.62500
 30
       11.00067
 11
        8.49943
 21
        5.62500
 31
        3.50000
 12
       -8.50000
 22
        5.62500
 32
        3.50000
 13
       -8.50000
 23
        5.62500
 33
       11.00067
999
Building Shading:Mir-GROUDZERO - COMPONENT BLOCK 1 - SURFACE 2 (8)
  0
3DFACE
  8
Building Shading
 62
195
 10
       -8.50000
 20
        5.62500
 30
       11.00067
 11
       -8.50000
 21
        5.62500
 31
        3.50000
 12
        8.49943
 22
        5.62500
 32
        3.50000
 13
        8.49943
 23
        5.62500
 33
       11.00067
999
Building Shading:GROUDZERO - COMPONENT BLOCK 1 - SURFACE 3 (9)
  0
3DFACE
  8
Building Shading
 62
195
 10
        8.49943
 20
       -5.37500
 30
       11.00067
 11
        8.49943
 21
       -5.37500
 31
        3.50000
 12
        8.49943
 22
        5.62500
 32
        3.50000
 13
        8.49943
 23
        5.62500
 33
       11.00067
999
Building Shading:Mir-GROUDZERO - COMPONENT BLOCK 1 - SURFACE 3 (9)
  0
3DFACE
  8
Building Shading
 62
195
 10
        8.49943
 20
        5.62500
 30
       11.00067
 11
        8.49943
 21
        5.62500
 31
        3.50000
 12
        8.49943
 22
       -5.37500
 32
        3.50000
 13
        8.49943
 23
       -5.37500
 33
       11.00067
999
Building Shading:GROUDZERO - COMPONENT BLOCK 1 - SURFACE 4 (10)
  0
3DFACE
  8
Building Shading
 62
195
 10
       -8.50000
 20
        5.62500
 30
       11.00067
 11
       -8.50000
 21
        5.62500
 31
        3.50000
 12
       -8.50000
 22
       -5.37500
 32
        3.50000
 13
       -8.50000
 23
       -5.37500
 33
       11.00067
999
Building Shading:Mir-GROUDZERO - COMPONENT BLOCK 1 - SURFACE 4 (10)
  0
3DFACE
  8
Building Shading
 62
195
 10
       -8.50000
 20
       -5.37500
 30
       11.00067
 11
       -8.50000
 21
       -5.37500
 31
        3.50000
 12
       -8.50000
 22
        5.62500
 32
        3.50000
 13
       -8.50000
 23
        5.62500
 33
       11.00067
999
Building Shading:GROUDZERO - COMPONENT BLOCK 1 - SURFACE 5 (11)
  0
3DFACE
  8
Building Shading
 62
195
 10
       -8.50000
 20
       -5.37500
 30
       11.00067
 11
       -8.50000
 21
       -5.37500
 31
        3.50000
 12
        8.49943
 22
       -5.37500
 32
        3.50000
 13
        8.49943
 23
       -5.37500
 33
       11.00067
999
Building Shading:Mir-GROUDZERO - COMPONENT BLOCK 1 - SURFACE 5 (11)
  0
3DFACE
  8
Building Shading
 62
195
 10
        8.49943
 20
       -5.37500
 30
       11.00067
 11
        8.49943
 21
       -5.37500
 31
        3.50000
 12
       -8.50000
 22
       -5.37500
 32
        3.50000
 13
       -8.50000
 23
       -5.37500
 33
       11.00067
999
Building Shading:GROUDZERO - COMPONENT BLOCK 1 - SURFACE 6 (12)
  0
3DFACE
  8
Building Shading
 62
195
 10
       -8.50000
 20
       -5.37500
 30
        3.50000
 11
       -8.50000
 21
        5.62500
 31
        3.50000
 12
        8.49943
 22
        5.62500
 32
        3.50000
 13
        8.49943
 23
       -5.37500
 33
        3.50000
999
Building Shading:Mir-GROUDZERO - COMPONENT BLOCK 1 - SURFACE 6 (12)
  0
3DFACE
  8
Building Shading
 62
195
 10
        8.49943
 20
       -5.37500
 30
        3.50000
 11
        8.49943
 21
        5.62500
 31
        3.50000
 12
       -8.50000
 22
        5.62500
 32
        3.50000
 13
       -8.50000
 23
       -5.37500
 33
        3.50000
999
Building Shading:GROUDZERO - COMPONENT BLOCK 3 - SURFACE 1 (13)
  0
3DFACE
  8
Building Shading
 62
195
 10
       -8.50000
 20
        0.12500
 30
       14.34930
 11
       -8.50000
 21
       -5.67500
 31
       11.00067
 12
        8.49943
 22
       -5.67500
 32
       11.00067
 13
        8.49943
 23
        0.12500
 33
       14.34930
999
Building Shading:Mir-GROUDZERO - COMPONENT BLOCK 3 - SURFACE 1 (13)
  0
3DFACE
  8
Building Shading
 62
195
 10
        8.49943
 20
        0.12500
 30
       14.34930
 11
        8.49943
 21
       -5.67500
 31
       11.00067
 12
       -8.50000
 22
       -5.67500
 32
       11.00067
 13
       -8.50000
 23
        0.12500
 33
       14.34930
999
Building Shading:GROUDZERO - COMPONENT BLOCK 3 - SURFACE 2 (14)
  0
3DFACE
  8
Building Shading
 62
195
 10
       -8.50000
 20
        0.12500
 30
       14.34930
 11
       -8.50000
 21
        5.92500
 31
       11.00067
 12
       -8.50000
 22
       -5.67500
 32
       11.00067
 13
       -8.50000
 23
       -5.67500
 33
       11.00067
999
Building Shading:Mir-GROUDZERO - COMPONENT BLOCK 3 - SURFACE 2 (14)
  0
3DFACE
  8
Building Shading
 62
195
 10
       -8.50000
 20
       -5.67500
 30
       11.00067
 11
       -8.50000
 21
        5.92500
 31
       11.00067
 12
       -8.50000
 22
        0.12500
 32
       14.34930
 13
       -8.50000
 23
        0.12500
 33
       14.34930
999
Building Shading:GROUDZERO - COMPONENT BLOCK 3 - SURFACE 3 (15)
  0
3DFACE
  8
Building Shading
 62
195
 10
        8.49943
 20
        0.12500
 30
       14.34930
 11
        8.49943
 21
        5.92500
 31
       11.00067
 12
       -8.50000
 22
        5.92500
 32
       11.00067
 13
       -8.50000
 23
        0.12500
 33
       14.34930
999
Building Shading:Mir-GROUDZERO - COMPONENT BLOCK 3 - SURFACE 3 (15)
  0
3DFACE
  8
Building Shading
 62
195
 10
       -8.50000
 20
        0.12500
 30
       14.34930
 11
       -8.50000
 21
        5.92500
 31
       11.00067
 12
        8.49943
 22
        5.92500
 32
       11.00067
 13
        8.49943
 23
        0.12500
 33
       14.34930
999
Building Shading:GROUDZERO - COMPONENT BLOCK 3 - SURFACE 4 (16)
  0
3DFACE
  8
Building Shading
 62
195
 10
        8.49943
 20
        0.12500
 30
       14.34930
 11
        8.49943
 21
       -5.67500
 31
       11.00067
 12
        8.49943
 22
        5.92500
 32
       11.00067
 13
        8.49943
 23
        5.92500
 33
       11.00067
999
Building Shading:Mir-GROUDZERO - COMPONENT BLOCK 3 - SURFACE 4 (16)
  0
3DFACE
  8
Building Shading
 62
195
 10
        8.49943
 20
        5.92500
 30
       11.00067
 11
        8.49943
 21
       -5.67500
 31
       11.00067
 12
        8.49943
 22
        0.12500
 32
       14.34930
 13
        8.49943
 23
        0.12500
 33
       14.34930
999
Building Shading:GROUDZERO - COMPONENT BLOCK 3 - SURFACE 5 (17)
  0
3DFACE
  8
Building Shading
 62
195
 10
       -8.50000
 20
       -5.67500
 30
       11.00067
 11
       -8.50000
 21
        5.92500
 31
       11.00067
 12
        8.49943
 22
        5.92500
 32
       11.00067
 13
        8.49943
 23
       -5.67500
 33
       11.00067
999
Building Shading:Mir-GROUDZERO - COMPONENT BLOCK 3 - SURFACE 5 (17)
  0
3DFACE
  8
Building Shading
 62
195
 10
        8.49943
 20
       -5.67500
 30
       11.00067
 11
        8.49943
 21
        5.92500
 31
       11.00067
 12
       -8.50000
 22
        5.92500
 32
       11.00067
 13
       -8.50000
 23
       -5.67500
 33
       11.00067
999
Building Shading:GROUDZERO - COMPONENT BLOCK 4 - SURFACE 1 (18)
  0
3DFACE
  8
Building Shading
 62
195
 10
        8.49571
 20
       -5.37500
 30
        0.00000
 11
        8.49571
 21
        5.62500
 31
        0.00000
 12
       -8.50000
 22
        5.62500
 32
        0.00000
 13
       -8.50000
 23
       -5.37500
 33
        0.00000
999
Building Shading:Mir-GROUDZERO - COMPONENT BLOCK 4 - SURFACE 1 (18)
  0
3DFACE
  8
Building Shading
 62
195
 10
       -8.50000
 20
       -5.37500
 30
        0.00000
 11
       -8.50000
 21
        5.62500
 31
        0.00000
 12
        8.49571
 22
        5.62500
 32
        0.00000
 13
        8.49571
 23
       -5.37500
 33
        0.00000
999
Building Shading:GROUDZERO - COMPONENT BLOCK 4 - SURFACE 2 (19)
  0
3DFACE
  8
Building Shading
 62
195
 10
       -8.50000
 20
       -5.37500
 30
       -1.50000
 11
       -8.50000
 21
        5.62500
 31
       -1.50000
 12
        8.49571
 22
        5.62500
 32
       -1.50000
 13
        8.49571
 23
       -5.37500
 33
       -1.50000
999
Building Shading:Mir-GROUDZERO - COMPONENT BLOCK 4 - SURFACE 2 (19)
  0
3DFACE
  8
Building Shading
 62
195
 10
        8.49571
 20
       -5.37500
 30
       -1.50000
 11
        8.49571
 21
        5.62500
 31
       -1.50000
 12
       -8.50000
 22
        5.62500
 32
       -1.50000
 13
       -8.50000
 23
       -5.37500
 33
       -1.50000
999
Building Shading:GROUDZERO - COMPONENT BLOCK 4 - SURFACE 3 (20)
  0
3DFACE
  8
Building Shading
 62
195
 10
        8.49571
 20
        5.62500
 30
        0.00000
 11
        8.49571
 21
        5.62500
 31
       -1.50000
 12
       -8.50000
 22
        5.62500
 32
       -1.50000
 13
       -8.50000
 23
        5.62500
 33
        0.00000
999
Building Shading:Mir-GROUDZERO - COMPONENT BLOCK 4 - SURFACE 3 (20)
  0
3DFACE
  8
Building Shading
 62
195
 10
       -8.50000
 20
        5.62500
 30
        0.00000
 11
       -8.50000
 21
        5.62500
 31
       -1.50000
 12
        8.49571
 22
        5.62500
 32
       -1.50000
 13
        8.49571
 23
        5.62500
 33
        0.00000
999
Building Shading:GROUDZERO - COMPONENT BLOCK 4 - SURFACE 4 (21)
  0
3DFACE
  8
Building Shading
 62
195
 10
       -8.50000
 20
        5.62500
 30
        0.00000
 11
       -8.50000
 21
        5.62500
 31
       -1.50000
 12
       -8.50000
 22
       -5.37500
 32
       -1.50000
 13
       -8.50000
 23
       -5.37500
 33
        0.00000
999
Building Shading:Mir-GROUDZERO - COMPONENT BLOCK 4 - SURFACE 4 (21)
  0
3DFACE
  8
Building Shading
 62
195
 10
       -8.50000
 20
       -5.37500
 30
        0.00000
 11
       -8.50000
 21
       -5.37500
 31
       -1.50000
 12
       -8.50000
 22
        5.62500
 32
       -1.50000
 13
       -8.50000
 23
        5.62500
 33
        0.00000
999
Building Shading:GROUDZERO - COMPONENT BLOCK 4 - SURFACE 5 (22)
  0
3DFACE
  8
Building Shading
 62
195
 10
       -8.50000
 20
       -5.37500
 30
        0.00000
 11
       -8.50000
 21
       -5.37500
 31
       -1.50000
 12
        8.49571
 22
       -5.37500
 32
       -1.50000
 13
        8.49571
 23
       -5.37500
 33
        0.00000
999
Building Shading:Mir-GROUDZERO - COMPONENT BLOCK 4 - SURFACE 5 (22)
  0
3DFACE
  8
Building Shading
 62
195
 10
        8.49571
 20
       -5.37500
 30
        0.00000
 11
        8.49571
 21
       -5.37500
 31
       -1.50000
 12
       -8.50000
 22
       -5.37500
 32
       -1.50000
 13
       -8.50000
 23
       -5.37500
 33
        0.00000
999
Building Shading:GROUDZERO - COMPONENT BLOCK 4 - SURFACE 6 (23)
  0
3DFACE
  8
Building Shading
 62
195
 10
        8.49571
 20
       -5.37500
 30
        0.00000
 11
        8.49571
 21
       -5.37500
 31
       -1.50000
 12
        8.49571
 22
        5.62500
 32
       -1.50000
 13
        8.49571
 23
        5.62500
 33
        0.00000
999
Building Shading:Mir-GROUDZERO - COMPONENT BLOCK 4 - SURFACE 6 (23)
  0
3DFACE
  8
Building Shading
 62
195
 10
        8.49571
 20
        5.62500
 30
        0.00000
 11
        8.49571
 21
        5.62500
 31
       -1.50000
 12
        8.49571
 22
       -5.37500
 32
       -1.50000
 13
        8.49571
 23
       -5.37500
 33
        0.00000
999
BLOCK1:ZONE3:BLOCK1:ZONE3_PARTITION_2_0_0
  0
3DFACE
  8
BLOCK1_ZONE3
 62
 43
 10
       -5.50000
 20
        0.62290
 30
        3.50000
 11
       -5.50000
 21
        0.62290
 31
        0.00000
 12
       -5.50000
 22
       -1.37500
 32
        0.00000
 13
       -5.50000
 23
       -1.37500
 33
        3.50000
999
BLOCK1:ZONE3:BLOCK1:ZONE3_PARTITION_3_0_0
  0
3DFACE
  8
BLOCK1_ZONE3
 62
 43
 10
       -5.50000
 20
       -1.37500
 30
        3.50000
 11
       -5.50000
 21
       -1.37500
 31
        0.00000
 12
       -3.50000
 22
       -1.37500
 32
        0.00000
 13
       -3.50000
 23
       -1.37500
 33
        3.50000
999
BLOCK1:ZONE3:BLOCK1:ZONE3_PARTITION_4_0_0
  0
3DFACE
  8
BLOCK1_ZONE3
 62
 43
 10
       -3.50000
 20
       -1.37500
 30
        3.50000
 11
       -3.50000
 21
       -1.37500
 31
        0.00000
 12
       -3.50000
 22
        5.62500
 32
        0.00000
 13
       -3.50000
 23
        5.62500
 33
        3.50000
999
BLOCK1:ZONE3:BLOCK1:ZONE3_WALL_5_0_0
  0
3DFACE
  8
BLOCK1_ZONE3
 62
 43
 10
       -3.50000
 20
        5.62500
 30
        3.50000
 11
       -3.50000
 21
        5.62500
 31
        0.00000
 12
       -8.50000
 22
        5.62500
 32
        0.00000
 13
       -8.50000
 23
        5.62500
 33
        3.50000
999
BLOCK1:ZONE3:BLOCK1:ZONE3_WALL_5_0_0_0_0_0_WIN
  0
3DFACE
  8
BLOCK1_ZONE3
 62
143
 10
       -1.02000
 20
       -0.00000
 30
        0.95000
 11
       -1.02000
 21
       -0.00000
 31
        0.47000
 12
       -2.05000
 22
       -0.00000
 32
        0.47000
 13
       -2.05000
 23
       -0.00000
 33
        0.95000
999
BLOCK1:ZONE3:BLOCK1:ZONE3_WALL_6_0_0
  0
3DFACE
  8
BLOCK1_ZONE3
 62
 43
 10
       -8.50000
 20
        5.62500
 30
        3.50000
 11
       -8.50000
 21
        5.62500
 31
        0.00000
 12
       -8.50000
 22
        0.62290
 32
        0.00000
 13
       -8.50000
 23
        0.62290
 33
        3.50000
999
BLOCK1:ZONE3:BLOCK1:ZONE3_PARTITION_7_0_0
  0
3DFACE
  8
BLOCK1_ZONE3
 62
 43
 10
       -8.50000
 20
        0.62290
 30
        3.50000
 11
       -8.50000
 21
        0.62290
 31
        0.00000
 12
       -5.50000
 22
        0.62290
 32
        0.00000
 13
       -5.50000
 23
        0.62290
 33
        3.50000
999
BLOCK1:ZONE3:BLOCK1:ZONE3_FLOOR_0_0_0
  0
3DFACE
  8
BLOCK1_ZONE3
 62
  8
 10
       -5.50000
 20
       -1.37500
 30
        0.00000
 11
       -5.50000
 21
        0.62290
 31
        0.00000
 12
       -3.50000
 22
        0.62290
 32
        0.00000
 13
       -3.50000
 23
       -1.37500
 33
        0.00000
999
BLOCK1:ZONE3:BLOCK1:ZONE3_FLOOR_0_0_1
  0
3DFACE
  8
BLOCK1_ZONE3
 62
  8
 10
       -8.50000
 20
        0.62290
 30
        0.00000
 11
       -8.50000
 21
        5.62500
 31
        0.00000
 12
       -3.50000
 22
        5.62500
 32
        0.00000
 13
       -3.50000
 23
        0.62290
 33
        0.00000
999
BLOCK1:ZONE3:BLOCK1:ZONE3_CEILING_1_0_0
  0
3DFACE
  8
BLOCK1_ZONE3
 62
 15
 10
       -5.50000
 20
        0.62290
 30
        3.50000
 11
       -5.50000
 21
        5.62500
 31
        3.50000
 12
       -8.50000
 22
        5.62500
 32
        3.50000
 13
       -8.50000
 23
        0.62290
 33
        3.50000
999
BLOCK1:ZONE3:BLOCK1:ZONE3_CEILING_1_0_1
  0
3DFACE
  8
BLOCK1_ZONE3
 62
 15
 10
       -3.50000
 20
       -1.37500
 30
        3.50000
 11
       -3.50000
 21
        5.62500
 31
        3.50000
 12
       -5.50000
 22
        5.62500
 32
        3.50000
 13
       -5.50000
 23
       -1.37500
 33
        3.50000
999
BLOCK1:ZONE1:BLOCK1:ZONE1_PARTITION_4_0_10004
  0
3DFACE
  8
BLOCK1_ZONE1
 62
 43
 10
       -5.50000
 20
       -1.37500
 30
        3.50000
 11
       -5.50000
 21
       -1.37500
 31
        0.00000
 12
       -5.50000
 22
        0.62290
 32
        0.00000
 13
       -5.50000
 23
        0.62290
 33
        3.50000
999
BLOCK1:ZONE1:BLOCK1:ZONE1_PARTITION_5_0_10007
  0
3DFACE
  8
BLOCK1_ZONE1
 62
 43
 10
       -5.50000
 20
        0.62290
 30
        3.50000
 11
       -5.50000
 21
        0.62290
 31
        0.00000
 12
       -8.50000
 22
        0.62290
 32
        0.00000
 13
       -8.50000
 23
        0.62290
 33
        3.50000
999
BLOCK1:ZONE1:BLOCK1:ZONE1_WALL_2_0_0
  0
3DFACE
  8
BLOCK1_ZONE1
 62
 43
 10
       -8.50000
 20
        0.62290
 30
        3.50000
 11
       -8.50000
 21
        0.62290
 31
        0.00000
 12
       -8.50000
 22
       -1.37500
 32
        0.00000
 13
       -8.50000
 23
       -1.37500
 33
        3.50000
999
BLOCK1:ZONE1:BLOCK1:ZONE1_WALL_2_0_0_0_0_0_WIN
  0
3DFACE
  8
BLOCK1_ZONE1
 62
143
 10
        0.00000
 20
       -0.39000
 30
        0.95000
 11
        0.00000
 21
       -0.39000
 31
        0.47000
 12
        0.00000
 22
       -0.79000
 32
        0.47000
 13
        0.00000
 23
       -0.79000
 33
        0.95000
999
BLOCK1:ZONE1:BLOCK1:ZONE1_PARTITION_3_0_0
  0
3DFACE
  8
BLOCK1_ZONE1
 62
 43
 10
       -8.50000
 20
       -1.37500
 30
        3.50000
 11
       -8.50000
 21
       -1.37500
 31
        0.00000
 12
       -5.50000
 22
       -1.37500
 32
        0.00000
 13
       -5.50000
 23
       -1.37500
 33
        3.50000
999
BLOCK1:ZONE1:BLOCK1:ZONE1_FLOOR_0_0_0
  0
3DFACE
  8
BLOCK1_ZONE1
 62
  8
 10
       -8.50000
 20
       -1.37500
 30
        0.00000
 11
       -8.50000
 21
        0.62290
 31
        0.00000
 12
       -5.50000
 22
        0.62290
 32
        0.00000
 13
       -5.50000
 23
       -1.37500
 33
        0.00000
999
BLOCK1:ZONE1:BLOCK1:ZONE1_CEILING_1_0_0
  0
3DFACE
  8
BLOCK1_ZONE1
 62
 15
 10
       -5.50000
 20
       -1.37500
 30
        3.50000
 11
       -5.50000
 21
        0.62290
 31
        3.50000
 12
       -8.50000
 22
        0.62290
 32
        3.50000
 13
       -8.50000
 23
       -1.37500
 33
        3.50000
999
BLOCK1:ZONE2:BLOCK1:ZONE2_PARTITION_5_0_10005
  0
3DFACE
  8
BLOCK1_ZONE2
 62
 43
 10
       -3.50000
 20
       -1.37500
 30
        3.50000
 11
       -3.50000
 21
       -1.37500
 31
        0.00000
 12
       -5.50000
 22
       -1.37500
 32
        0.00000
 13
       -5.50000
 23
       -1.37500
 33
        3.50000
999
BLOCK1:ZONE2:BLOCK1:ZONE2_PARTITION_6_0_10010
  0
3DFACE
  8
BLOCK1_ZONE2
 62
 43
 10
       -5.50000
 20
       -1.37500
 30
        3.50000
 11
       -5.50000
 21
       -1.37500
 31
        0.00000
 12
       -8.50000
 22
       -1.37500
 32
        0.00000
 13
       -8.50000
 23
       -1.37500
 33
        3.50000
999
BLOCK1:ZONE2:BLOCK1:ZONE2_WALL_2_0_0
  0
3DFACE
  8
BLOCK1_ZONE2
 62
 43
 10
       -8.50000
 20
       -1.37500
 30
        3.50000
 11
       -8.50000
 21
       -1.37500
 31
        0.00000
 12
       -8.50000
 22
       -5.37500
 32
        0.00000
 13
       -8.50000
 23
       -5.37500
 33
        3.50000
999
BLOCK1:ZONE2:BLOCK1:ZONE2_WALL_3_0_0
  0
3DFACE
  8
BLOCK1_ZONE2
 62
 43
 10
       -8.50000
 20
       -5.37500
 30
        3.50000
 11
       -8.50000
 21
       -5.37500
 31
        0.00000
 12
       -3.50000
 22
       -5.37500
 32
        0.00000
 13
       -3.50000
 23
       -5.37500
 33
        3.50000
999
BLOCK1:ZONE2:BLOCK1:ZONE2_WALL_3_0_0_0_0_0_WIN
  0
3DFACE
  8
BLOCK1_ZONE2
 62
143
 10
       -2.05000
 20
       -0.00000
 30
        0.95000
 11
       -2.05000
 21
       -0.00000
 31
        0.47000
 12
       -1.02000
 22
       -0.00000
 32
        0.47000
 13
       -1.02000
 23
       -0.00000
 33
        0.95000
999
BLOCK1:ZONE2:BLOCK1:ZONE2_PARTITION_4_0_0
  0
3DFACE
  8
BLOCK1_ZONE2
 62
 43
 10
       -3.50000
 20
       -5.37500
 30
        3.50000
 11
       -3.50000
 21
       -5.37500
 31
        0.00000
 12
       -3.50000
 22
       -1.37500
 32
        0.00000
 13
       -3.50000
 23
       -1.37500
 33
        3.50000
999
BLOCK1:ZONE2:BLOCK1:ZONE2_FLOOR_0_0_0
  0
3DFACE
  8
BLOCK1_ZONE2
 62
  8
 10
       -8.50000
 20
       -5.37500
 30
        0.00000
 11
       -8.50000
 21
       -1.37500
 31
        0.00000
 12
       -3.50000
 22
       -1.37500
 32
        0.00000
 13
       -3.50000
 23
       -5.37500
 33
        0.00000
999
BLOCK1:ZONE2:BLOCK1:ZONE2_CEILING_1_0_0
  0
3DFACE
  8
BLOCK1_ZONE2
 62
 15
 10
       -3.50000
 20
       -5.37500
 30
        3.50000
 11
       -3.50000
 21
       -1.37500
 31
        3.50000
 12
       -8.50000
 22
       -1.37500
 32
        3.50000
 13
       -8.50000
 23
       -5.37500
 33
        3.50000
999
BLOCK1:ZONE3:DayRefPt:1
  0
CIRCLE
  8
BLOCK1_ZONE3
 62
 10
 10
       -6.00000
 20
        3.12400
 30
        0.90000
 40
        0.20000
999
BLOCK1:ZONE1:DayRefPt:1
  0
CIRCLE
  8
BLOCK1_ZONE1
 62
 10
 10
       -7.00000
 20
       -0.37600
 30
        0.90000
 40
        0.20000
999
BLOCK1:ZONE2:DayRefPt:1
  0
CIRCLE
  8
BLOCK1_ZONE2
 62
 10
 10
       -6.00000
 20
       -3.37500
 30
        0.90000
 40
        0.20000
999
BLOCK1:ZONE3:DEDayRefPt:1
  0
CIRCLE
  8
BLOCK1_ZONE3
 62
 10
 10
       -6.00000
 20
        3.12400
 30
        0.90000
 40
        0.20000
999
BLOCK1:ZONE1:DEDayRefPt:1
  0
CIRCLE
  8
BLOCK1_ZONE1
 62
 10
 10
       -7.00000
 20
       -0.37600
 30
        0.90000
 40
        0.20000
999
BLOCK1:ZONE2:DEDayRefPt:1
  0
CIRCLE
  8
BLOCK1_ZONE2
 62
 10
 10
       -6.00000
 20
       -3.37500
 30
        0.90000
 40
        0.20000
  0
ENDSEC
  0
EOF
