  0
SECTION
  2
ENTITIES
999
DXF created from EnergyPlus
999
Program Version,EnergyPlus, Version 9.0.1-bb7ca4f0da, YMD=2020.12.31 21:44
999
Polygon Action,TRIANGULATE3DFACE
999
Color Scheme,Default
999
Text - True North
  0
TEXT
  8
1
  6
Continuous
 62
  3
 10
      -13.62500
 20
       -8.80000
 30
        0.10000
 40
 .25
  1
True North
 41
 0.0
  7
MONOTXT
210
0.0
220
0.0
230
1.0
999
Text - Building Title
  0
TEXT
  8
1
  6
Continuous
 62
  3
 10
      -16.62500
 20
      -12.80000
 30
        0.10000
 40
 .4
  1
Building - Building
 41
 0.0
  7
MONOTXT
210
0.0
220
0.0
230
1.0
999
North Arrow Stem
  0
3DFACE
  8
1
 62
  3
 10
      -12.62500
 20
       -8.80000
 30
        0.10000
 11
      -12.62500
 21
       -8.80000
 31
        0.00000
 12
      -12.62500
 22
      -11.80000
 32
        0.00000
 13
      -12.62500
 23
      -11.80000
 33
        0.10000
999
North Arrow Head 1
  0
3DFACE
  8
1
 62
  3
 10
      -12.62500
 20
       -8.80000
 30
        0.10000
 11
      -12.62500
 21
       -8.80000
 31
        0.00000
 12
      -13.12500
 22
       -9.66603
 32
        0.00000
 13
      -13.12500
 23
       -9.66603
 33
        0.10000
999
North Arrow Head 2
  0
3DFACE
  8
1
 62
  3
 10
      -12.62500
 20
       -8.80000
 30
        0.10000
 11
      -12.62500
 21
       -8.80000
 31
        0.00000
 12
      -12.12500
 22
       -9.66603
 32
        0.00000
 13
      -12.12500
 23
       -9.66603
 33
        0.10000
999
North Arrow Side 1
  0
3DFACE
  8
1
 62
  3
 10
      -13.12500
 20
       -7.30000
 30
        0.10000
 11
      -13.12500
 21
       -7.30000
 31
        0.00000
 12
      -13.12500
 22
       -8.30000
 32
        0.00000
 13
      -13.12500
 23
       -8.30000
 33
        0.10000
999
North Arrow Side 2
  0
3DFACE
  8
1
 62
  3
 10
      -13.12500
 20
       -7.30000
 30
        0.10000
 11
      -13.12500
 21
       -7.30000
 31
        0.00000
 12
      -12.12500
 22
       -8.30000
 32
        0.00000
 13
      -12.12500
 23
       -8.30000
 33
        0.10000
999
North Arrow Side 3
  0
3DFACE
  8
1
 62
  3
 10
      -12.12500
 20
       -7.30000
 30
        0.10000
 11
      -12.12500
 21
       -7.30000
 31
        0.00000
 12
      -12.12500
 22
       -8.30000
 32
        0.00000
 13
      -12.12500
 23
       -8.30000
 33
        0.10000
999
Zone Names
999
Zone=1:BLOCK1_ZONE3
999
Zone=2:BLOCK1_ZONE1
999
Zone=3:BLOCK1_ZONE2
999
Building Shading:GROUDZERO - COMPONENT BLOCK 2 - SURFACE 1 (1)
  0
3DFACE
  8
Building Shading
 62
195
 10
       14.37071
 20
      -11.50000
 30
        3.50000
 11
       14.37071
 21
      -11.50000
 31
        0.00000
 12
       14.37071
 22
       -0.50000
 32
        0.00000
 13
       14.37071
 23
       -0.50000
 33
        3.50000
999
Building Shading:Mir-GROUDZERO - COMPONENT BLOCK 2 - SURFACE 1 (1)
  0
3DFACE
  8
Building Shading
 62
195
 10
       14.37071
 20
       -0.50000
 30
        3.50000
 11
       14.37071
 21
       -0.50000
 31
        0.00000
 12
       14.37071
 22
      -11.50000
 32
        0.00000
 13
       14.37071
 23
      -11.50000
 33
        3.50000
999
Building Shading:GROUDZERO - COMPONENT BLOCK 2 - SURFACE 2 (2)
  0
3DFACE
  8
Building Shading
 62
195
 10
       14.37071
 20
      -11.50000
 30
        3.50000
 11
       14.37071
 21
       -0.50000
 31
        3.50000
 12
        2.37500
 22
       -0.50000
 32
        3.50000
 13
        2.37500
 23
      -11.50000
 33
        3.50000
999
Building Shading:Mir-GROUDZERO - COMPONENT BLOCK 2 - SURFACE 2 (2)
  0
3DFACE
  8
Building Shading
 62
195
 10
        2.37500
 20
      -11.50000
 30
        3.50000
 11
        2.37500
 21
       -0.50000
 31
        3.50000
 12
       14.37071
 22
       -0.50000
 32
        3.50000
 13
       14.37071
 23
      -11.50000
 33
        3.50000
999
Building Shading:GROUDZERO - COMPONENT BLOCK 2 - SURFACE 3 (3)
  0
3DFACE
  8
Building Shading
 62
195
 10
       14.37071
 20
       -0.50000
 30
        3.50000
 11
       14.37071
 21
       -0.50000
 31
        0.00000
 12
        2.37500
 22
       -0.50000
 32
        0.00000
 13
        2.37500
 23
       -0.50000
 33
        3.50000
999
Building Shading:Mir-GROUDZERO - COMPONENT BLOCK 2 - SURFACE 3 (3)
  0
3DFACE
  8
Building Shading
 62
195
 10
        2.37500
 20
       -0.50000
 30
        3.50000
 11
        2.37500
 21
       -0.50000
 31
        0.00000
 12
       14.37071
 22
       -0.50000
 32
        0.00000
 13
       14.37071
 23
       -0.50000
 33
        3.50000
999
Building Shading:GROUDZERO - COMPONENT BLOCK 2 - SURFACE 4 (4)
  0
3DFACE
  8
Building Shading
 62
195
 10
        2.37500
 20
      -11.50000
 30
        0.00000
 11
        2.37500
 21
       -0.50000
 31
        0.00000
 12
       14.37071
 22
       -0.50000
 32
        0.00000
 13
       14.37071
 23
      -11.50000
 33
        0.00000
999
Building Shading:Mir-GROUDZERO - COMPONENT BLOCK 2 - SURFACE 4 (4)
  0
3DFACE
  8
Building Shading
 62
195
 10
       14.37071
 20
      -11.50000
 30
        0.00000
 11
       14.37071
 21
       -0.50000
 31
        0.00000
 12
        2.37500
 22
       -0.50000
 32
        0.00000
 13
        2.37500
 23
      -11.50000
 33
        0.00000
999
Building Shading:GROUDZERO - COMPONENT BLOCK 2 - SURFACE 5 (5)
  0
3DFACE
  8
Building Shading
 62
195
 10
        2.37500
 20
      -11.50000
 30
        3.50000
 11
        2.37500
 21
      -11.50000
 31
        0.00000
 12
       14.37071
 22
      -11.50000
 32
        0.00000
 13
       14.37071
 23
      -11.50000
 33
        3.50000
999
Building Shading:Mir-GROUDZERO - COMPONENT BLOCK 2 - SURFACE 5 (5)
  0
3DFACE
  8
Building Shading
 62
195
 10
       14.37071
 20
      -11.50000
 30
        3.50000
 11
       14.37071
 21
      -11.50000
 31
        0.00000
 12
        2.37500
 22
      -11.50000
 32
        0.00000
 13
        2.37500
 23
      -11.50000
 33
        3.50000
999
Building Shading:GROUDZERO - COMPONENT BLOCK 2 - SURFACE 6 (6)
  0
3DFACE
  8
Building Shading
 62
195
 10
        2.37500
 20
       -0.50000
 30
        3.50000
 11
        2.37500
 21
       -0.50000
 31
        0.00000
 12
        2.37500
 22
      -11.50000
 32
        0.00000
 13
        2.37500
 23
      -11.50000
 33
        3.50000
999
Building Shading:Mir-GROUDZERO - COMPONENT BLOCK 2 - SURFACE 6 (6)
  0
3DFACE
  8
Building Shading
 62
195
 10
        2.37500
 20
      -11.50000
 30
        3.50000
 11
        2.37500
 21
      -11.50000
 31
        0.00000
 12
        2.37500
 22
       -0.50000
 32
        0.00000
 13
        2.37500
 23
       -0.50000
 33
        3.50000
999
Building Shading:GROUDZERO - COMPONENT BLOCK 1 - SURFACE 1 (7)
  0
3DFACE
  8
Building Shading
 62
195
 10
       14.37443
 20
      -11.50000
 30
       11.00067
 11
       14.37443
 21
       -0.50000
 31
       11.00067
 12
       -2.62500
 22
       -0.50000
 32
       11.00067
 13
       -2.62500
 23
      -11.50000
 33
       11.00067
999
Building Shading:Mir-GROUDZERO - COMPONENT BLOCK 1 - SURFACE 1 (7)
  0
3DFACE
  8
Building Shading
 62
195
 10
       -2.62500
 20
      -11.50000
 30
       11.00067
 11
       -2.62500
 21
       -0.50000
 31
       11.00067
 12
       14.37443
 22
       -0.50000
 32
       11.00067
 13
       14.37443
 23
      -11.50000
 33
       11.00067
999
Building Shading:GROUDZERO - COMPONENT BLOCK 1 - SURFACE 2 (8)
  0
3DFACE
  8
Building Shading
 62
195
 10
       14.37443
 20
       -0.50000
 30
       11.00067
 11
       14.37443
 21
       -0.50000
 31
        3.50000
 12
       -2.62500
 22
       -0.50000
 32
        3.50000
 13
       -2.62500
 23
       -0.50000
 33
       11.00067
999
Building Shading:Mir-GROUDZERO - COMPONENT BLOCK 1 - SURFACE 2 (8)
  0
3DFACE
  8
Building Shading
 62
195
 10
       -2.62500
 20
       -0.50000
 30
       11.00067
 11
       -2.62500
 21
       -0.50000
 31
        3.50000
 12
       14.37443
 22
       -0.50000
 32
        3.50000
 13
       14.37443
 23
       -0.50000
 33
       11.00067
999
Building Shading:GROUDZERO - COMPONENT BLOCK 1 - SURFACE 3 (9)
  0
3DFACE
  8
Building Shading
 62
195
 10
       14.37443
 20
      -11.50000
 30
       11.00067
 11
       14.37443
 21
      -11.50000
 31
        3.50000
 12
       14.37443
 22
       -0.50000
 32
        3.50000
 13
       14.37443
 23
       -0.50000
 33
       11.00067
999
Building Shading:Mir-GROUDZERO - COMPONENT BLOCK 1 - SURFACE 3 (9)
  0
3DFACE
  8
Building Shading
 62
195
 10
       14.37443
 20
       -0.50000
 30
       11.00067
 11
       14.37443
 21
       -0.50000
 31
        3.50000
 12
       14.37443
 22
      -11.50000
 32
        3.50000
 13
       14.37443
 23
      -11.50000
 33
       11.00067
999
Building Shading:GROUDZERO - COMPONENT BLOCK 1 - SURFACE 4 (10)
  0
3DFACE
  8
Building Shading
 62
195
 10
       -2.62500
 20
       -0.50000
 30
       11.00067
 11
       -2.62500
 21
       -0.50000
 31
        3.50000
 12
       -2.62500
 22
      -11.50000
 32
        3.50000
 13
       -2.62500
 23
      -11.50000
 33
       11.00067
999
Building Shading:Mir-GROUDZERO - COMPONENT BLOCK 1 - SURFACE 4 (10)
  0
3DFACE
  8
Building Shading
 62
195
 10
       -2.62500
 20
      -11.50000
 30
       11.00067
 11
       -2.62500
 21
      -11.50000
 31
        3.50000
 12
       -2.62500
 22
       -0.50000
 32
        3.50000
 13
       -2.62500
 23
       -0.50000
 33
       11.00067
999
Building Shading:GROUDZERO - COMPONENT BLOCK 1 - SURFACE 5 (11)
  0
3DFACE
  8
Building Shading
 62
195
 10
       -2.62500
 20
      -11.50000
 30
       11.00067
 11
       -2.62500
 21
      -11.50000
 31
        3.50000
 12
       14.37443
 22
      -11.50000
 32
        3.50000
 13
       14.37443
 23
      -11.50000
 33
       11.00067
999
Building Shading:Mir-GROUDZERO - COMPONENT BLOCK 1 - SURFACE 5 (11)
  0
3DFACE
  8
Building Shading
 62
195
 10
       14.37443
 20
      -11.50000
 30
       11.00067
 11
       14.37443
 21
      -11.50000
 31
        3.50000
 12
       -2.62500
 22
      -11.50000
 32
        3.50000
 13
       -2.62500
 23
      -11.50000
 33
       11.00067
999
Building Shading:GROUDZERO - COMPONENT BLOCK 1 - SURFACE 6 (12)
  0
3DFACE
  8
Building Shading
 62
195
 10
       -2.62500
 20
      -11.50000
 30
        3.50000
 11
       -2.62500
 21
       -0.50000
 31
        3.50000
 12
       14.37443
 22
       -0.50000
 32
        3.50000
 13
       14.37443
 23
      -11.50000
 33
        3.50000
999
Building Shading:Mir-GROUDZERO - COMPONENT BLOCK 1 - SURFACE 6 (12)
  0
3DFACE
  8
Building Shading
 62
195
 10
       14.37443
 20
      -11.50000
 30
        3.50000
 11
       14.37443
 21
       -0.50000
 31
        3.50000
 12
       -2.62500
 22
       -0.50000
 32
        3.50000
 13
       -2.62500
 23
      -11.50000
 33
        3.50000
999
Building Shading:GROUDZERO - COMPONENT BLOCK 3 - SURFACE 1 (13)
  0
3DFACE
  8
Building Shading
 62
195
 10
       -2.62500
 20
       -6.00000
 30
       14.34930
 11
       -2.62500
 21
      -11.80000
 31
       11.00067
 12
       14.37443
 22
      -11.80000
 32
       11.00067
 13
       14.37443
 23
       -6.00000
 33
       14.34930
999
Building Shading:Mir-GROUDZERO - COMPONENT BLOCK 3 - SURFACE 1 (13)
  0
3DFACE
  8
Building Shading
 62
195
 10
       14.37443
 20
       -6.00000
 30
       14.34930
 11
       14.37443
 21
      -11.80000
 31
       11.00067
 12
       -2.62500
 22
      -11.80000
 32
       11.00067
 13
       -2.62500
 23
       -6.00000
 33
       14.34930
999
Building Shading:GROUDZERO - COMPONENT BLOCK 3 - SURFACE 2 (14)
  0
3DFACE
  8
Building Shading
 62
195
 10
       -2.62500
 20
       -6.00000
 30
       14.34930
 11
       -2.62500
 21
       -0.20000
 31
       11.00067
 12
       -2.62500
 22
      -11.80000
 32
       11.00067
 13
       -2.62500
 23
      -11.80000
 33
       11.00067
999
Building Shading:Mir-GROUDZERO - COMPONENT BLOCK 3 - SURFACE 2 (14)
  0
3DFACE
  8
Building Shading
 62
195
 10
       -2.62500
 20
      -11.80000
 30
       11.00067
 11
       -2.62500
 21
       -0.20000
 31
       11.00067
 12
       -2.62500
 22
       -6.00000
 32
       14.34930
 13
       -2.62500
 23
       -6.00000
 33
       14.34930
999
Building Shading:GROUDZERO - COMPONENT BLOCK 3 - SURFACE 3 (15)
  0
3DFACE
  8
Building Shading
 62
195
 10
       14.37443
 20
       -6.00000
 30
       14.34930
 11
       14.37443
 21
       -0.20000
 31
       11.00067
 12
       -2.62500
 22
       -0.20000
 32
       11.00067
 13
       -2.62500
 23
       -6.00000
 33
       14.34930
999
Building Shading:Mir-GROUDZERO - COMPONENT BLOCK 3 - SURFACE 3 (15)
  0
3DFACE
  8
Building Shading
 62
195
 10
       -2.62500
 20
       -6.00000
 30
       14.34930
 11
       -2.62500
 21
       -0.20000
 31
       11.00067
 12
       14.37443
 22
       -0.20000
 32
       11.00067
 13
       14.37443
 23
       -6.00000
 33
       14.34930
999
Building Shading:GROUDZERO - COMPONENT BLOCK 3 - SURFACE 4 (16)
  0
3DFACE
  8
Building Shading
 62
195
 10
       14.37443
 20
       -6.00000
 30
       14.34930
 11
       14.37443
 21
      -11.80000
 31
       11.00067
 12
       14.37443
 22
       -0.20000
 32
       11.00067
 13
       14.37443
 23
       -0.20000
 33
       11.00067
999
Building Shading:Mir-GROUDZERO - COMPONENT BLOCK 3 - SURFACE 4 (16)
  0
3DFACE
  8
Building Shading
 62
195
 10
       14.37443
 20
       -0.20000
 30
       11.00067
 11
       14.37443
 21
      -11.80000
 31
       11.00067
 12
       14.37443
 22
       -6.00000
 32
       14.34930
 13
       14.37443
 23
       -6.00000
 33
       14.34930
999
Building Shading:GROUDZERO - COMPONENT BLOCK 3 - SURFACE 5 (17)
  0
3DFACE
  8
Building Shading
 62
195
 10
       -2.62500
 20
      -11.80000
 30
       11.00067
 11
       -2.62500
 21
       -0.20000
 31
       11.00067
 12
       14.37443
 22
       -0.20000
 32
       11.00067
 13
       14.37443
 23
      -11.80000
 33
       11.00067
999
Building Shading:Mir-GROUDZERO - COMPONENT BLOCK 3 - SURFACE 5 (17)
  0
3DFACE
  8
Building Shading
 62
195
 10
       14.37443
 20
      -11.80000
 30
       11.00067
 11
       14.37443
 21
       -0.20000
 31
       11.00067
 12
       -2.62500
 22
       -0.20000
 32
       11.00067
 13
       -2.62500
 23
      -11.80000
 33
       11.00067
999
Building Shading:GROUDZERO - COMPONENT BLOCK 4 - SURFACE 1 (18)
  0
3DFACE
  8
Building Shading
 62
195
 10
       14.37071
 20
      -11.50000
 30
        0.00000
 11
       14.37071
 21
       -0.50000
 31
        0.00000
 12
       -2.62500
 22
       -0.50000
 32
        0.00000
 13
       -2.62500
 23
      -11.50000
 33
        0.00000
999
Building Shading:Mir-GROUDZERO - COMPONENT BLOCK 4 - SURFACE 1 (18)
  0
3DFACE
  8
Building Shading
 62
195
 10
       -2.62500
 20
      -11.50000
 30
        0.00000
 11
       -2.62500
 21
       -0.50000
 31
        0.00000
 12
       14.37071
 22
       -0.50000
 32
        0.00000
 13
       14.37071
 23
      -11.50000
 33
        0.00000
999
Building Shading:GROUDZERO - COMPONENT BLOCK 4 - SURFACE 2 (19)
  0
3DFACE
  8
Building Shading
 62
195
 10
       -2.62500
 20
      -11.50000
 30
       -1.50000
 11
       -2.62500
 21
       -0.50000
 31
       -1.50000
 12
       14.37071
 22
       -0.50000
 32
       -1.50000
 13
       14.37071
 23
      -11.50000
 33
       -1.50000
999
Building Shading:Mir-GROUDZERO - COMPONENT BLOCK 4 - SURFACE 2 (19)
  0
3DFACE
  8
Building Shading
 62
195
 10
       14.37071
 20
      -11.50000
 30
       -1.50000
 11
       14.37071
 21
       -0.50000
 31
       -1.50000
 12
       -2.62500
 22
       -0.50000
 32
       -1.50000
 13
       -2.62500
 23
      -11.50000
 33
       -1.50000
999
Building Shading:GROUDZERO - COMPONENT BLOCK 4 - SURFACE 3 (20)
  0
3DFACE
  8
Building Shading
 62
195
 10
       14.37071
 20
       -0.50000
 30
        0.00000
 11
       14.37071
 21
       -0.50000
 31
       -1.50000
 12
       -2.62500
 22
       -0.50000
 32
       -1.50000
 13
       -2.62500
 23
       -0.50000
 33
        0.00000
999
Building Shading:Mir-GROUDZERO - COMPONENT BLOCK 4 - SURFACE 3 (20)
  0
3DFACE
  8
Building Shading
 62
195
 10
       -2.62500
 20
       -0.50000
 30
        0.00000
 11
       -2.62500
 21
       -0.50000
 31
       -1.50000
 12
       14.37071
 22
       -0.50000
 32
       -1.50000
 13
       14.37071
 23
       -0.50000
 33
        0.00000
999
Building Shading:GROUDZERO - COMPONENT BLOCK 4 - SURFACE 4 (21)
  0
3DFACE
  8
Building Shading
 62
195
 10
       -2.62500
 20
       -0.50000
 30
        0.00000
 11
       -2.62500
 21
       -0.50000
 31
       -1.50000
 12
       -2.62500
 22
      -11.50000
 32
       -1.50000
 13
       -2.62500
 23
      -11.50000
 33
        0.00000
999
Building Shading:Mir-GROUDZERO - COMPONENT BLOCK 4 - SURFACE 4 (21)
  0
3DFACE
  8
Building Shading
 62
195
 10
       -2.62500
 20
      -11.50000
 30
        0.00000
 11
       -2.62500
 21
      -11.50000
 31
       -1.50000
 12
       -2.62500
 22
       -0.50000
 32
       -1.50000
 13
       -2.62500
 23
       -0.50000
 33
        0.00000
999
Building Shading:GROUDZERO - COMPONENT BLOCK 4 - SURFACE 5 (22)
  0
3DFACE
  8
Building Shading
 62
195
 10
       -2.62500
 20
      -11.50000
 30
        0.00000
 11
       -2.62500
 21
      -11.50000
 31
       -1.50000
 12
       14.37071
 22
      -11.50000
 32
       -1.50000
 13
       14.37071
 23
      -11.50000
 33
        0.00000
999
Building Shading:Mir-GROUDZERO - COMPONENT BLOCK 4 - SURFACE 5 (22)
  0
3DFACE
  8
Building Shading
 62
195
 10
       14.37071
 20
      -11.50000
 30
        0.00000
 11
       14.37071
 21
      -11.50000
 31
       -1.50000
 12
       -2.62500
 22
      -11.50000
 32
       -1.50000
 13
       -2.62500
 23
      -11.50000
 33
        0.00000
999
Building Shading:GROUDZERO - COMPONENT BLOCK 4 - SURFACE 6 (23)
  0
3DFACE
  8
Building Shading
 62
195
 10
       14.37071
 20
      -11.50000
 30
        0.00000
 11
       14.37071
 21
      -11.50000
 31
       -1.50000
 12
       14.37071
 22
       -0.50000
 32
       -1.50000
 13
       14.37071
 23
       -0.50000
 33
        0.00000
999
Building Shading:Mir-GROUDZERO - COMPONENT BLOCK 4 - SURFACE 6 (23)
  0
3DFACE
  8
Building Shading
 62
195
 10
       14.37071
 20
       -0.50000
 30
        0.00000
 11
       14.37071
 21
       -0.50000
 31
       -1.50000
 12
       14.37071
 22
      -11.50000
 32
       -1.50000
 13
       14.37071
 23
      -11.50000
 33
        0.00000
999
BLOCK1:ZONE3:BLOCK1:ZONE3_PARTITION_2_0_0
  0
3DFACE
  8
BLOCK1_ZONE3
 62
 43
 10
        0.37500
 20
       -5.50210
 30
        3.50000
 11
        0.37500
 21
       -5.50210
 31
        0.00000
 12
        0.37500
 22
       -7.50000
 32
        0.00000
 13
        0.37500
 23
       -7.50000
 33
        3.50000
999
BLOCK1:ZONE3:BLOCK1:ZONE3_PARTITION_3_0_0
  0
3DFACE
  8
BLOCK1_ZONE3
 62
 43
 10
        0.37500
 20
       -7.50000
 30
        3.50000
 11
        0.37500
 21
       -7.50000
 31
        0.00000
 12
        2.37500
 22
       -7.50000
 32
        0.00000
 13
        2.37500
 23
       -7.50000
 33
        3.50000
999
BLOCK1:ZONE3:BLOCK1:ZONE3_PARTITION_4_0_0
  0
3DFACE
  8
BLOCK1_ZONE3
 62
 43
 10
        2.37500
 20
       -7.50000
 30
        3.50000
 11
        2.37500
 21
       -7.50000
 31
        0.00000
 12
        2.37500
 22
       -0.50000
 32
        0.00000
 13
        2.37500
 23
       -0.50000
 33
        3.50000
999
BLOCK1:ZONE3:BLOCK1:ZONE3_WALL_5_0_0
  0
3DFACE
  8
BLOCK1_ZONE3
 62
 43
 10
        2.37500
 20
       -0.50000
 30
        3.50000
 11
        2.37500
 21
       -0.50000
 31
        0.00000
 12
       -2.62500
 22
       -0.50000
 32
        0.00000
 13
       -2.62500
 23
       -0.50000
 33
        3.50000
999
BLOCK1:ZONE3:BLOCK1:ZONE3_WALL_5_0_0_0_0_0_WIN
  0
3DFACE
  8
BLOCK1_ZONE3
 62
143
 10
        0.63420
 20
       -0.50000
 30
        2.36000
 11
        0.63420
 21
       -0.50000
 31
        0.94000
 12
       -0.31030
 22
       -0.50000
 32
        0.94000
 13
       -0.31030
 23
       -0.50000
 33
        2.36000
999
BLOCK1:ZONE3:BLOCK1:ZONE3_WALL_6_0_0
  0
3DFACE
  8
BLOCK1_ZONE3
 62
 43
 10
       -2.62500
 20
       -0.50000
 30
        3.50000
 11
       -2.62500
 21
       -0.50000
 31
        0.00000
 12
       -2.62500
 22
       -5.50210
 32
        0.00000
 13
       -2.62500
 23
       -5.50210
 33
        3.50000
999
BLOCK1:ZONE3:BLOCK1:ZONE3_PARTITION_7_0_0
  0
3DFACE
  8
BLOCK1_ZONE3
 62
 43
 10
       -2.62500
 20
       -5.50210
 30
        3.50000
 11
       -2.62500
 21
       -5.50210
 31
        0.00000
 12
        0.37500
 22
       -5.50210
 32
        0.00000
 13
        0.37500
 23
       -5.50210
 33
        3.50000
999
BLOCK1:ZONE3:BLOCK1:ZONE3_FLOOR_0_0_0
  0
3DFACE
  8
BLOCK1_ZONE3
 62
  8
 10
        0.37500
 20
       -7.50000
 30
        0.00000
 11
        0.37500
 21
       -5.50210
 31
        0.00000
 12
        2.37500
 22
       -5.50210
 32
        0.00000
 13
        2.37500
 23
       -7.50000
 33
        0.00000
999
BLOCK1:ZONE3:BLOCK1:ZONE3_FLOOR_0_0_1
  0
3DFACE
  8
BLOCK1_ZONE3
 62
  8
 10
       -2.62500
 20
       -5.50210
 30
        0.00000
 11
       -2.62500
 21
       -0.50000
 31
        0.00000
 12
        2.37500
 22
       -0.50000
 32
        0.00000
 13
        2.37500
 23
       -5.50210
 33
        0.00000
999
BLOCK1:ZONE3:BLOCK1:ZONE3_CEILING_1_0_0
  0
3DFACE
  8
BLOCK1_ZONE3
 62
 15
 10
        0.37500
 20
       -5.50210
 30
        3.50000
 11
        0.37500
 21
       -0.50000
 31
        3.50000
 12
       -2.62500
 22
       -0.50000
 32
        3.50000
 13
       -2.62500
 23
       -5.50210
 33
        3.50000
999
BLOCK1:ZONE3:BLOCK1:ZONE3_CEILING_1_0_1
  0
3DFACE
  8
BLOCK1_ZONE3
 62
 15
 10
        2.37500
 20
       -7.50000
 30
        3.50000
 11
        2.37500
 21
       -0.50000
 31
        3.50000
 12
        0.37500
 22
       -0.50000
 32
        3.50000
 13
        0.37500
 23
       -7.50000
 33
        3.50000
999
BLOCK1:ZONE1:BLOCK1:ZONE1_PARTITION_4_0_10004
  0
3DFACE
  8
BLOCK1_ZONE1
 62
 43
 10
        0.37500
 20
       -7.50000
 30
        3.50000
 11
        0.37500
 21
       -7.50000
 31
        0.00000
 12
        0.37500
 22
       -5.50210
 32
        0.00000
 13
        0.37500
 23
       -5.50210
 33
        3.50000
999
BLOCK1:ZONE1:BLOCK1:ZONE1_PARTITION_5_0_10007
  0
3DFACE
  8
BLOCK1_ZONE1
 62
 43
 10
        0.37500
 20
       -5.50210
 30
        3.50000
 11
        0.37500
 21
       -5.50210
 31
        0.00000
 12
       -2.62500
 22
       -5.50210
 32
        0.00000
 13
       -2.62500
 23
       -5.50210
 33
        3.50000
999
BLOCK1:ZONE1:BLOCK1:ZONE1_WALL_2_0_0
  0
3DFACE
  8
BLOCK1_ZONE1
 62
 43
 10
       -2.62500
 20
       -5.50210
 30
        3.50000
 11
       -2.62500
 21
       -5.50210
 31
        0.00000
 12
       -2.62500
 22
       -7.50000
 32
        0.00000
 13
       -2.62500
 23
       -7.50000
 33
        3.50000
999
BLOCK1:ZONE1:BLOCK1:ZONE1_WALL_2_0_0_0_0_0_WIN
  0
3DFACE
  8
BLOCK1_ZONE1
 62
143
 10
       -2.62500
 20
       -6.31969
 30
        2.36000
 11
       -2.62500
 21
       -6.31969
 31
        0.94000
 12
       -2.62500
 22
       -6.68242
 32
        0.94000
 13
       -2.62500
 23
       -6.68242
 33
        2.36000
999
BLOCK1:ZONE1:BLOCK1:ZONE1_PARTITION_3_0_0
  0
3DFACE
  8
BLOCK1_ZONE1
 62
 43
 10
       -2.62500
 20
       -7.50000
 30
        3.50000
 11
       -2.62500
 21
       -7.50000
 31
        0.00000
 12
        0.37500
 22
       -7.50000
 32
        0.00000
 13
        0.37500
 23
       -7.50000
 33
        3.50000
999
BLOCK1:ZONE1:BLOCK1:ZONE1_FLOOR_0_0_0
  0
3DFACE
  8
BLOCK1_ZONE1
 62
  8
 10
       -2.62500
 20
       -7.50000
 30
        0.00000
 11
       -2.62500
 21
       -5.50210
 31
        0.00000
 12
        0.37500
 22
       -5.50210
 32
        0.00000
 13
        0.37500
 23
       -7.50000
 33
        0.00000
999
BLOCK1:ZONE1:BLOCK1:ZONE1_CEILING_1_0_0
  0
3DFACE
  8
BLOCK1_ZONE1
 62
 15
 10
        0.37500
 20
       -7.50000
 30
        3.50000
 11
        0.37500
 21
       -5.50210
 31
        3.50000
 12
       -2.62500
 22
       -5.50210
 32
        3.50000
 13
       -2.62500
 23
       -7.50000
 33
        3.50000
999
BLOCK1:ZONE2:BLOCK1:ZONE2_PARTITION_5_0_10005
  0
3DFACE
  8
BLOCK1_ZONE2
 62
 43
 10
        2.37500
 20
       -7.50000
 30
        3.50000
 11
        2.37500
 21
       -7.50000
 31
        0.00000
 12
        0.37500
 22
       -7.50000
 32
        0.00000
 13
        0.37500
 23
       -7.50000
 33
        3.50000
999
BLOCK1:ZONE2:BLOCK1:ZONE2_PARTITION_6_0_10010
  0
3DFACE
  8
BLOCK1_ZONE2
 62
 43
 10
        0.37500
 20
       -7.50000
 30
        3.50000
 11
        0.37500
 21
       -7.50000
 31
        0.00000
 12
       -2.62500
 22
       -7.50000
 32
        0.00000
 13
       -2.62500
 23
       -7.50000
 33
        3.50000
999
BLOCK1:ZONE2:BLOCK1:ZONE2_WALL_2_0_0
  0
3DFACE
  8
BLOCK1_ZONE2
 62
 43
 10
       -2.62500
 20
       -7.50000
 30
        3.50000
 11
       -2.62500
 21
       -7.50000
 31
        0.00000
 12
       -2.62500
 22
      -11.50000
 32
        0.00000
 13
       -2.62500
 23
      -11.50000
 33
        3.50000
999
BLOCK1:ZONE2:BLOCK1:ZONE2_WALL_3_0_0
  0
3DFACE
  8
BLOCK1_ZONE2
 62
 43
 10
       -2.62500
 20
      -11.50000
 30
        3.50000
 11
       -2.62500
 21
      -11.50000
 31
        0.00000
 12
        2.37500
 22
      -11.50000
 32
        0.00000
 13
        2.37500
 23
      -11.50000
 33
        3.50000
999
BLOCK1:ZONE2:BLOCK1:ZONE2_WALL_3_0_0_0_0_0_WIN
  0
3DFACE
  8
BLOCK1_ZONE2
 62
143
 10
       -0.31030
 20
      -11.50000
 30
        2.36000
 11
       -0.31030
 21
      -11.50000
 31
        0.94000
 12
        0.63420
 22
      -11.50000
 32
        0.94000
 13
        0.63420
 23
      -11.50000
 33
        2.36000
999
BLOCK1:ZONE2:BLOCK1:ZONE2_PARTITION_4_0_0
  0
3DFACE
  8
BLOCK1_ZONE2
 62
 43
 10
        2.37500
 20
      -11.50000
 30
        3.50000
 11
        2.37500
 21
      -11.50000
 31
        0.00000
 12
        2.37500
 22
       -7.50000
 32
        0.00000
 13
        2.37500
 23
       -7.50000
 33
        3.50000
999
BLOCK1:ZONE2:BLOCK1:ZONE2_FLOOR_0_0_0
  0
3DFACE
  8
BLOCK1_ZONE2
 62
  8
 10
       -2.62500
 20
      -11.50000
 30
        0.00000
 11
       -2.62500
 21
       -7.50000
 31
        0.00000
 12
        2.37500
 22
       -7.50000
 32
        0.00000
 13
        2.37500
 23
      -11.50000
 33
        0.00000
999
BLOCK1:ZONE2:BLOCK1:ZONE2_CEILING_1_0_0
  0
3DFACE
  8
BLOCK1_ZONE2
 62
 15
 10
        2.37500
 20
      -11.50000
 30
        3.50000
 11
        2.37500
 21
       -7.50000
 31
        3.50000
 12
       -2.62500
 22
       -7.50000
 32
        3.50000
 13
       -2.62500
 23
      -11.50000
 33
        3.50000
999
BLOCK1:ZONE3:DayRefPt:1
  0
CIRCLE
  8
BLOCK1_ZONE3
 62
 10
 10
       -0.12500
 20
       -3.00100
 30
        0.90000
 40
        0.20000
999
BLOCK1:ZONE1:DayRefPt:1
  0
CIRCLE
  8
BLOCK1_ZONE1
 62
 10
 10
       -1.12500
 20
       -6.50100
 30
        0.90000
 40
        0.20000
999
BLOCK1:ZONE2:DayRefPt:1
  0
CIRCLE
  8
BLOCK1_ZONE2
 62
 10
 10
       -0.12500
 20
       -9.50000
 30
        0.90000
 40
        0.20000
999
BLOCK1:ZONE3:DEDayRefPt:1
  0
CIRCLE
  8
BLOCK1_ZONE3
 62
 10
 10
       -0.12500
 20
       -3.00100
 30
        0.90000
 40
        0.20000
999
BLOCK1:ZONE1:DEDayRefPt:1
  0
CIRCLE
  8
BLOCK1_ZONE1
 62
 10
 10
       -1.12500
 20
       -6.50100
 30
        0.90000
 40
        0.20000
999
BLOCK1:ZONE2:DEDayRefPt:1
  0
CIRCLE
  8
BLOCK1_ZONE2
 62
 10
 10
       -0.12500
 20
       -9.50000
 30
        0.90000
 40
        0.20000
  0
ENDSEC
  0
EOF
